data_image0
_chemical_formula_structural       O21Zn6O3C42N3C24N3H6C3H15C3H9C3H12C3H9C3H15
_chemical_formula_sum              "O24 Zn6 C81 N6 H66"
_cell_length_a       10.5405
_cell_length_b       14.5197
_cell_length_c       13.5964
_cell_angle_alpha    89.9997
_cell_angle_beta     89.9982
_cell_angle_gamma    95.8972

_space_group_name_H-M_alt    "P 1"
_space_group_IT_number       1

loop_
  _space_group_symop_operation_xyz
  'x, y, z'

loop_
  _atom_site_type_symbol
  _atom_site_label
  _atom_site_symmetry_multiplicity
  _atom_site_fract_x
  _atom_site_fract_y
  _atom_site_fract_z
  _atom_site_occupancy
  O   O1        1.0  0.16639  0.77523  0.08166  1.0000
  O   O2        1.0  0.49972  0.10857  0.41499  1.0000
  O   O3        1.0  0.83306  0.44190  0.74833  1.0000
  O   O4        1.0  0.18599  0.04361  0.08169  1.0000
  O   O5        1.0  0.51932  0.37694  0.41502  1.0000
  O   O6        1.0  0.85265  0.71027  0.74835  1.0000
  O   O7        1.0  0.99142  0.90330  0.08167  1.0000
  O   O8        1.0  0.32475  0.23663  0.41501  1.0000
  O   O9        1.0  0.65808  0.56996  0.74834  1.0000
  O   O10       1.0  0.36096  0.91554  0.08167  1.0000
  O   O11       1.0  0.69429  0.24887  0.41501  1.0000
  O   O12       1.0  0.02762  0.58221  0.74834  1.0000
  O   O13       1.0  0.99143  0.90331  0.91809  1.0000
  O   O14       1.0  0.32476  0.23665  0.25142  1.0000
  O   O15       1.0  0.65809  0.56998  0.58476  1.0000
  O   O16       1.0  0.18599  0.04362  0.91811  1.0000
  O   O17       1.0  0.51933  0.37696  0.25144  1.0000
  O   O18       1.0  0.85266  0.71029  0.58477  1.0000
  O   O19       1.0  0.16640  0.77525  0.91808  1.0000
  O   O20       1.0  0.49973  0.10858  0.25141  1.0000
  O   O21       1.0  0.83307  0.44192  0.58474  1.0000
  Zn  Zn1       1.0  0.17620  0.90944  0.89212  1.0000
  Zn  Zn2       1.0  0.50953  0.24277  0.22545  1.0000
  Zn  Zn3       1.0  0.84287  0.57611  0.55878  1.0000
  Zn  Zn4       1.0  0.17618  0.90942  0.10765  1.0000
  Zn  Zn5       1.0  0.50952  0.24275  0.44098  1.0000
  Zn  Zn6       1.0  0.84285  0.57608  0.77431  1.0000
  O   O22       1.0  0.36097  0.91556  0.91809  1.0000
  O   O23       1.0  0.69430  0.24889  0.25143  1.0000
  O   O24       1.0  0.02763  0.58223  0.58476  1.0000
  C   C1        1.0  0.18508  0.07798  0.99990  1.0000
  C   C2        1.0  0.51841  0.41131  0.33323  1.0000
  C   C3        1.0  0.85174  0.74465  0.66657  1.0000
  C   C4        1.0  0.18234  0.18037  0.99991  1.0000
  C   C5        1.0  0.51567  0.51371  0.33325  1.0000
  C   C6        1.0  0.84901  0.84704  0.66658  1.0000
  C   C7        1.0  0.94413  0.90422  0.99988  1.0000
  C   C8        1.0  0.27746  0.23756  0.33322  1.0000
  C   C9        1.0  0.61080  0.57089  0.66655  1.0000
  C   C10       1.0  0.80321  0.90697  0.99989  1.0000
  C   C11       1.0  0.13654  0.24030  0.33322  1.0000
  C   C12       1.0  0.46988  0.57364  0.66655  1.0000
  C   C13       1.0  0.16731  0.74088  0.99987  1.0000
  C   C14       1.0  0.50064  0.07421  0.33320  1.0000
  C   C15       1.0  0.83397  0.40754  0.66653  1.0000
  C   C16       1.0  0.17004  0.63848  0.99986  1.0000
  C   C17       1.0  0.50338  0.97182  0.33319  1.0000
  C   C18       1.0  0.83671  0.30515  0.66653  1.0000
  C   C19       1.0  0.62086  0.01225  0.00027  1.0000
  C   C20       1.0  0.95419  0.34558  0.33360  1.0000
  C   C21       1.0  0.28752  0.67892  0.66693  1.0000
  C   C22       1.0  0.76745  0.00946  0.99990  1.0000
  C   C23       1.0  0.10078  0.34280  0.33323  1.0000
  C   C24       1.0  0.43411  0.67613  0.66656  1.0000
  C   C25       1.0  0.74106  0.85766  0.90647  1.0000
  C   C26       1.0  0.07439  0.19099  0.23980  1.0000
  C   C27       1.0  0.40772  0.52432  0.57313  1.0000
  C   C28       1.0  0.59455  0.86115  0.90639  1.0000
  C   C29       1.0  0.92788  0.19449  0.23972  1.0000
  C   C30       1.0  0.26121  0.52782  0.57306  1.0000
  C   C31       1.0  0.59399  0.85905  0.09241  1.0000
  C   C32       1.0  0.92733  0.19238  0.42575  1.0000
  C   C33       1.0  0.26066  0.52572  0.75908  1.0000
  C   C34       1.0  0.74097  0.85810  0.09365  1.0000
  C   C35       1.0  0.07430  0.19144  0.42698  1.0000
  C   C36       1.0  0.40763  0.52477  0.76031  1.0000
  C   C37       1.0  0.40825  0.91463  0.99988  1.0000
  C   C38       1.0  0.74159  0.24796  0.33322  1.0000
  C   C39       1.0  0.07492  0.58130  0.66655  1.0000
  C   C40       1.0  0.54917  0.91189  0.99989  1.0000
  C   C41       1.0  0.88251  0.24522  0.33322  1.0000
  C   C42       1.0  0.21584  0.57855  0.66655  1.0000
  N   N1        1.0  0.17621  0.90945  0.74503  1.0000
  N   N2        1.0  0.50954  0.24278  0.07836  1.0000
  N   N3        1.0  0.84287  0.57611  0.41169  1.0000
  C   C43       1.0  0.17227  0.55532  0.99987  1.0000
  C   C44       1.0  0.50560  0.88866  0.33320  1.0000
  C   C45       1.0  0.83893  0.22199  0.66653  1.0000
  C   C46       1.0  0.17506  0.45100  0.99988  1.0000
  C   C47       1.0  0.50840  0.78434  0.33321  1.0000
  C   C48       1.0  0.84173  0.11767  0.66655  1.0000
  C   C49       1.0  0.17730  0.36785  0.99989  1.0000
  C   C50       1.0  0.51064  0.70119  0.33322  1.0000
  C   C51       1.0  0.84397  0.03452  0.66656  1.0000
  C   C52       1.0  0.18010  0.26352  0.99990  1.0000
  C   C53       1.0  0.51343  0.59686  0.33324  1.0000
  C   C54       1.0  0.84677  0.93019  0.66657  1.0000
  C   C55       1.0  0.17621  0.90944  0.65603  1.0000
  C   C56       1.0  0.50954  0.24278  0.98936  1.0000
  C   C57       1.0  0.84288  0.57611  0.32270  1.0000
  C   C58       1.0  0.17620  0.90943  0.54438  1.0000
  C   C59       1.0  0.50954  0.24277  0.87771  1.0000
  C   C60       1.0  0.84287  0.57610  0.21104  1.0000
  C   C61       1.0  0.17619  0.90942  0.45539  1.0000
  C   C62       1.0  0.50952  0.24276  0.78872  1.0000
  C   C63       1.0  0.84286  0.57609  0.12205  1.0000
  C   C64       1.0  0.17618  0.90941  0.34373  1.0000
  C   C65       1.0  0.50951  0.24274  0.67706  1.0000
  C   C66       1.0  0.84285  0.57608  0.01040  1.0000
  N   N4        1.0  0.17617  0.90940  0.25474  1.0000
  N   N5        1.0  0.50950  0.24273  0.58807  1.0000
  N   N6        1.0  0.84283  0.57607  0.92140  1.0000
  H   H1        1.0  0.59267  0.05273  0.06726  1.0000
  H   H2        1.0  0.92600  0.38606  0.40059  1.0000
  H   H3        1.0  0.25933  0.71940  0.73393  1.0000
  H   H4        1.0  0.76442  0.78338  0.09928  1.0000
  H   H5        1.0  0.09776  0.11671  0.43262  1.0000
  H   H6        1.0  0.43109  0.45005  0.76595  1.0000
  C   C67       1.0  0.58061  0.06674  0.91029  1.0000
  C   C68       1.0  0.91395  0.40008  0.24363  1.0000
  C   C69       1.0  0.24728  0.73341  0.57696  1.0000
  H   H7        1.0  0.62435  0.12730  0.91109  1.0000
  H   H8        1.0  0.95769  0.46064  0.24443  1.0000
  H   H9        1.0  0.29102  0.79397  0.57776  1.0000
  H   H10       1.0  0.60139  0.03583  0.85179  1.0000
  H   H11       1.0  0.93472  0.36917  0.18512  1.0000
  H   H12       1.0  0.26806  0.70250  0.51845  1.0000
  H   H13       1.0  0.49126  0.07073  0.91251  1.0000
  H   H14       1.0  0.82459  0.40406  0.24584  1.0000
  H   H15       1.0  0.15793  0.73739  0.57917  1.0000
  H   H16       1.0  0.76264  0.78239  0.90299  1.0000
  H   H17       1.0  0.09597  0.11572  0.23632  1.0000
  H   H18       1.0  0.42931  0.44905  0.56965  1.0000
  H   H19       1.0  0.56672  0.89762  0.83657  1.0000
  H   H20       1.0  0.90006  0.23095  0.16990  1.0000
  H   H21       1.0  0.23339  0.56428  0.50323  1.0000
  C   C70       1.0  0.79906  0.90396  0.81256  1.0000
  C   C71       1.0  0.13239  0.23729  0.14589  1.0000
  C   C72       1.0  0.46572  0.57062  0.47923  1.0000
  H   H22       1.0  0.86114  0.95334  0.83009  1.0000
  H   H23       1.0  0.19447  0.28667  0.16342  1.0000
  H   H24       1.0  0.52780  0.62000  0.49675  1.0000
  H   H25       1.0  0.83818  0.85966  0.77476  1.0000
  H   H26       1.0  0.17152  0.19300  0.10809  1.0000
  H   H27       1.0  0.50485  0.52633  0.44143  1.0000
  H   H28       1.0  0.73363  0.92746  0.77491  1.0000
  H   H29       1.0  0.06696  0.26080  0.10825  1.0000
  H   H30       1.0  0.40030  0.59413  0.44158  1.0000
  C   C73       1.0  0.52917  0.75904  0.09326  1.0000
  C   C74       1.0  0.86250  0.09238  0.42660  1.0000
  C   C75       1.0  0.19583  0.42571  0.75993  1.0000
  H   H31       1.0  0.47504  0.74950  0.03753  1.0000
  H   H32       1.0  0.80838  0.08283  0.37087  1.0000
  H   H33       1.0  0.14171  0.41617  0.70420  1.0000
  H   H34       1.0  0.59242  0.71696  0.09121  1.0000
  H   H35       1.0  0.92576  0.05030  0.42454  1.0000
  H   H36       1.0  0.25909  0.38363  0.75788  1.0000
  H   H37       1.0  0.48001  0.74899  0.15156  1.0000
  H   H38       1.0  0.81335  0.08232  0.48489  1.0000
  H   H39       1.0  0.14668  0.41565  0.81823  1.0000
  H   H40       1.0  0.80961  0.04856  0.93283  1.0000
  H   H41       1.0  0.14294  0.38189  0.26616  1.0000
  H   H42       1.0  0.47627  0.71522  0.59949  1.0000
  C   C76       1.0  0.52872  0.76158  0.90063  1.0000
  C   C77       1.0  0.86206  0.09491  0.23397  1.0000
  C   C78       1.0  0.19539  0.42825  0.56730  1.0000
  H   H43       1.0  0.59156  0.71917  0.89835  1.0000
  H   H44       1.0  0.92489  0.05251  0.23168  1.0000
  H   H45       1.0  0.25822  0.38584  0.56501  1.0000
  H   H46       1.0  0.47642  0.74920  0.95696  1.0000
  H   H47       1.0  0.80975  0.08253  0.29029  1.0000
  H   H48       1.0  0.14308  0.41586  0.62363  1.0000
  H   H49       1.0  0.47760  0.75494  0.84303  1.0000
  H   H50       1.0  0.81093  0.08828  0.17636  1.0000
  H   H51       1.0  0.14427  0.42161  0.50969  1.0000
  C   C79       1.0  0.79676  0.90678  0.18701  1.0000
  C   C80       1.0  0.13009  0.24011  0.52035  1.0000
  C   C81       1.0  0.46343  0.57344  0.85368  1.0000
  H   H52       1.0  0.85774  0.95667  0.16894  1.0000
  H   H53       1.0  0.19107  0.29000  0.50227  1.0000
  H   H54       1.0  0.52441  0.62333  0.83561  1.0000
  H   H55       1.0  0.73015  0.92986  0.22370  1.0000
  H   H56       1.0  0.06349  0.26320  0.55703  1.0000
  H   H57       1.0  0.39682  0.59653  0.89036  1.0000
  H   H58       1.0  0.83684  0.86383  0.22600  1.0000
  H   H59       1.0  0.17017  0.19716  0.55933  1.0000
  H   H60       1.0  0.50351  0.53049  0.89267  1.0000
  H   H61       1.0  0.56278  0.89221  0.16322  1.0000
  H   H62       1.0  0.89611  0.22555  0.49655  1.0000
  H   H63       1.0  0.22944  0.55888  0.82989  1.0000
  H   H64       1.0  0.81044  0.04827  0.06686  1.0000
  H   H65       1.0  0.14378  0.38160  0.40020  1.0000
  H   H66       1.0  0.47711  0.71494  0.73353  1.0000
