data_image0
_chemical_formula_structural       O7Cu2OC14ONCOC10NC11O2C14NC8NHNH2NH5NH4NH3NH2NH2NH3NH2NH4NH2NH2NH2NH2NH2NH2NH2NH3
_chemical_formula_sum              "O12 Cu2 C58 N21 H45"
_cell_length_a       12.8114
_cell_length_b       27.732
_cell_length_c       11.2955
_cell_angle_alpha    94.6339
_cell_angle_beta     89.1622
_cell_angle_gamma    83.348

_space_group_name_H-M_alt    "P 1"
_space_group_IT_number       1

loop_
  _space_group_symop_operation_xyz
  'x, y, z'

loop_
  _atom_site_type_symbol
  _atom_site_label
  _atom_site_symmetry_multiplicity
  _atom_site_fract_x
  _atom_site_fract_y
  _atom_site_fract_z
  _atom_site_occupancy
  O   O1        1.0  0.38838  0.06361  0.94908  1.0000
  O   O2        1.0  0.08476  0.07165  0.98188  1.0000
  O   O3        1.0  0.24600  0.99726  0.96444  1.0000
  O   O4        1.0  0.22714  0.13801  0.96652  1.0000
  O   O5        1.0  0.23355  0.99146  0.76773  1.0000
  O   O6        1.0  0.07231  0.06586  0.78517  1.0000
  O   O7        1.0  0.37594  0.05782  0.75238  1.0000
  Cu  Cu1       1.0  0.22299  0.06131  0.75081  1.0000
  Cu  Cu2       1.0  0.23771  0.06816  0.98344  1.0000
  O   O8        1.0  0.21470  0.13221  0.76982  1.0000
  C   C1        1.0  0.03971  0.06848  0.88772  1.0000
  C   C2        1.0  0.92400  0.06766  0.90022  1.0000
  C   C3        1.0  0.76770  0.06967  0.02505  1.0000
  C   C4        1.0  0.87641  0.07044  0.01331  1.0000
  C   C5        1.0  0.86286  0.06412  0.79885  1.0000
  C   C6        1.0  0.75414  0.06335  0.81058  1.0000
  C   C7        1.0  0.70656  0.06612  0.92368  1.0000
  C   C8        1.0  0.59784  0.06535  0.93542  1.0000
  C   C9        1.0  0.58429  0.05903  0.72095  1.0000
  C   C10       1.0  0.69301  0.05980  0.70922  1.0000
  C   C11       1.0  0.23938  0.97635  0.86613  1.0000
  C   C12       1.0  0.23819  0.92269  0.86624  1.0000
  C   C13       1.0  0.32597  0.58408  0.85682  1.0000
  C   C14       1.0  0.32155  0.38241  0.85732  1.0000
  O   O9        1.0  0.40182  0.35135  0.84870  1.0000
  N   N1        1.0  0.22594  0.36307  0.86764  1.0000
  C   C15       1.0  0.13143  0.39414  0.87786  1.0000
  O   O10       1.0  0.05001  0.37306  0.88666  1.0000
  C   C16       1.0  0.13585  0.59581  0.87737  1.0000
  C   C17       1.0  0.23147  0.61516  0.86703  1.0000
  C   C18       1.0  0.42158  0.60343  0.84649  1.0000
  C   C19       1.0  0.42268  0.65384  0.84636  1.0000
  C   C20       1.0  0.32818  0.68491  0.85656  1.0000
  C   C21       1.0  0.23257  0.66557  0.86690  1.0000
  C   C22       1.0  0.04134  0.62689  0.88759  1.0000
  C   C23       1.0  0.04246  0.67731  0.88747  1.0000
  C   C24       1.0  0.13807  0.69665  0.87713  1.0000
  C   C25       1.0  0.13917  0.74706  0.87698  1.0000
  N   N2        1.0  0.23478  0.76640  0.86665  1.0000
  C   C26       1.0  0.32929  0.73533  0.85644  1.0000
  C   C27       1.0  0.12911  0.28827  0.87811  1.0000
  C   C28       1.0  0.12801  0.23785  0.87823  1.0000
  C   C29       1.0  0.31813  0.22612  0.85769  1.0000
  C   C30       1.0  0.31923  0.27654  0.85756  1.0000
  C   C31       1.0  0.22472  0.30761  0.86778  1.0000
  C   C32       1.0  0.33160  0.84120  0.85617  1.0000
  C   C33       1.0  0.33269  0.89162  0.85604  1.0000
  C   C34       1.0  0.14257  0.90334  0.87658  1.0000
  C   C35       1.0  0.14148  0.85293  0.87671  1.0000
  C   C36       1.0  0.23600  0.82186  0.86651  1.0000
  O   O11       1.0  0.05895  0.77815  0.88561  1.0000
  O   O12       1.0  0.41070  0.75642  0.84767  1.0000
  C   C37       1.0  0.32487  0.53367  0.85695  1.0000
  C   C38       1.0  0.22926  0.51433  0.86729  1.0000
  C   C39       1.0  0.13476  0.54540  0.87750  1.0000
  C   C40       1.0  0.22815  0.46391  0.86741  1.0000
  C   C41       1.0  0.32266  0.43284  0.85720  1.0000
  C   C42       1.0  0.41827  0.45218  0.84688  1.0000
  C   C43       1.0  0.41937  0.50260  0.84675  1.0000
  C   C44       1.0  0.03915  0.52605  0.88782  1.0000
  C   C45       1.0  0.03805  0.47564  0.88795  1.0000
  C   C46       1.0  0.13255  0.44457  0.87775  1.0000
  C   C47       1.0  0.42099  0.06099  0.84654  1.0000
  C   C48       1.0  0.53670  0.06181  0.83405  1.0000
  C   C49       1.0  0.22132  0.15312  0.86813  1.0000
  C   C50       1.0  0.22251  0.20678  0.86802  1.0000
  N   N3        1.0  0.21264  0.05649  0.58719  1.0000
  C   C51       1.0  0.32253  0.10771  0.32605  1.0000
  C   C52       1.0  0.31472  0.10406  0.20223  1.0000
  C   C53       1.0  0.18922  0.04554  0.21573  1.0000
  C   C54       1.0  0.19703  0.04919  0.33955  1.0000
  C   C55       1.0  0.26369  0.08028  0.39470  1.0000
  C   C56       1.0  0.27149  0.08393  0.51853  1.0000
  C   C57       1.0  0.14599  0.02540  0.53202  1.0000
  C   C58       1.0  0.13818  0.02175  0.40820  1.0000
  N   N4        1.0  0.24806  0.07298  0.14706  1.0000
  H   H1        1.0  0.55911  0.06762  0.02751  1.0000
  N   N5        1.0  0.74432  0.05681  0.58724  1.0000
  H   H2        1.0  0.82247  0.05783  0.59518  1.0000
  H   H3        1.0  0.71343  0.08525  0.54345  1.0000
  N   N6        1.0  0.71638  0.07266  0.14703  1.0000
  H   H4        1.0  0.68051  0.04253  0.15571  1.0000
  H   H5        1.0  0.66270  0.10245  0.15758  1.0000
  H   H6        1.0  0.08391  0.99644  0.36328  1.0000
  H   H7        1.0  0.92619  0.07332  0.09585  1.0000
  H   H8        1.0  0.13496  0.02023  0.17080  1.0000
  N   N7        1.0  0.37821  0.13365  0.12817  1.0000
  H   H9        1.0  0.42162  0.15389  0.18191  1.0000
  H   H10       1.0  0.32915  0.15581  0.08174  1.0000
  H   H11       1.0  0.09807  0.00306  0.58794  1.0000
  H   H12       1.0  0.32576  0.10924  0.56344  1.0000
  N   N8        1.0  0.93722  0.55957  0.89883  1.0000
  H   H13       1.0  0.90008  0.55551  0.97626  1.0000
  H   H14       1.0  0.89094  0.55118  0.83036  1.0000
  H   H15       1.0  0.53450  0.05615  0.63842  1.0000
  N   N9        1.0  0.43582  0.91248  0.84488  1.0000
  H   H16       1.0  0.49552  0.88514  0.83844  1.0000
  H   H17       1.0  0.44504  0.93530  0.91730  1.0000
  N   N10       1.0  0.91419  0.06112  0.67687  1.0000
  H   H18       1.0  0.88338  0.08956  0.63301  1.0000
  H   H19       1.0  0.90122  0.02964  0.63116  1.0000
  N   N11       1.0  0.43354  0.80770  0.84517  1.0000
  H   H20       1.0  0.49427  0.82761  0.83860  1.0000
  H   H21       1.0  0.43261  0.78437  0.77185  1.0000
  H   H22       1.0  0.96349  0.61115  0.89602  1.0000
  N   N12       1.0  0.52250  0.52346  0.83561  1.0000
  H   H23       1.0  0.52259  0.54196  0.76218  1.0000
  H   H24       1.0  0.58213  0.49609  0.82922  1.0000
  N   N13       1.0  0.52019  0.41866  0.83586  1.0000
  H   H25       1.0  0.50498  0.38379  0.83751  1.0000
  H   H26       1.0  0.56652  0.42707  0.90427  1.0000
  H   H27       1.0  0.50054  0.66958  0.83794  1.0000
  H   H28       1.0  0.96018  0.45990  0.89636  1.0000
  N   N14       1.0  0.52351  0.56991  0.83547  1.0000
  H   H29       1.0  0.56988  0.57828  0.90387  1.0000
  H   H30       1.0  0.56055  0.57399  0.75800  1.0000
  N   N15       1.0  0.42236  0.29740  0.84642  1.0000
  H   H31       1.0  0.43168  0.32020  0.91883  1.0000
  H   H32       1.0  0.42238  0.31587  0.77295  1.0000
  N   N16       1.0  0.42006  0.19260  0.84668  1.0000
  H   H33       1.0  0.40484  0.15773  0.84833  1.0000
  H   H34       1.0  0.46637  0.20101  0.91510  1.0000
  N   N17       1.0  0.02488  0.21699  0.88935  1.0000
  H   H35       1.0  0.96518  0.24433  0.89580  1.0000
  H   H36       1.0  0.02488  0.19848  0.96277  1.0000
  N   N18       1.0  0.02717  0.32178  0.88913  1.0000
  H   H37       1.0  0.96644  0.30187  0.89568  1.0000
  H   H38       1.0  0.01887  0.34080  0.81660  1.0000
  N   N19       1.0  0.03835  0.83207  0.88784  1.0000
  H   H39       1.0  0.97865  0.85940  0.89428  1.0000
  H   H40       1.0  0.03837  0.81356  0.96127  1.0000
  N   N20       1.0  0.94052  0.71082  0.89850  1.0000
  H   H41       1.0  0.87979  0.69092  0.90507  1.0000
  H   H42       1.0  0.93222  0.72984  0.82597  1.0000
  N   N21       1.0  0.04065  0.93686  0.88756  1.0000
  H   H43       1.0  0.05586  0.97174  0.88590  1.0000
  H   H44       1.0  0.00354  0.93277  0.96498  1.0000
  H   H45       1.0  0.37680  0.13303  0.37096  1.0000
