data_image0
_chemical_formula_structural       Zn4O13C9N2CN2C14H2C2H5C2H6C2H6C2H8C2H5
_chemical_formula_sum              "Zn4 O13 C34 N4 H32"
_cell_length_a       21.2954
_cell_length_b       10.686
_cell_length_c       10.6859
_cell_angle_alpha    99.0824
_cell_angle_beta     94.3328
_cell_angle_gamma    85.6053

_space_group_name_H-M_alt    "P 1"
_space_group_IT_number       1

loop_
  _space_group_symop_operation_xyz
  'x, y, z'

loop_
  _atom_site_type_symbol
  _atom_site_label
  _atom_site_symmetry_multiplicity
  _atom_site_fract_x
  _atom_site_fract_y
  _atom_site_fract_z
  _atom_site_occupancy
  Zn  Zn1       1.0  0.79255  0.00438  0.13334  1.0000
  Zn  Zn2       1.0  0.69475  0.02084  0.34563  1.0000
  Zn  Zn3       1.0  0.79252  0.23294  0.36188  1.0000
  Zn  Zn4       1.0  0.67983  0.21674  0.14973  1.0000
  O   O1        1.0  0.73991  0.11872  0.24765  1.0000
  O   O2        1.0  0.78584  0.82892  0.14784  1.0000
  O   O3        1.0  0.71396  0.06265  0.52541  1.0000
  O   O4        1.0  0.88062  0.20251  0.33150  1.0000
  O   O5        1.0  0.71399  0.84102  0.30381  1.0000
  O   O6        1.0  0.88064  0.03458  0.16360  1.0000
  O   O7        1.0  0.78579  0.21847  0.53735  1.0000
  O   O8        1.0  0.77131  0.40842  0.34739  1.0000
  O   O9        1.0  0.68855  0.17490  0.96994  1.0000
  O   O10       1.0  0.68852  0.39652  0.19154  1.0000
  O   O11       1.0  0.77136  0.01888  0.95789  1.0000
  O   O12       1.0  0.60468  0.04694  0.31970  1.0000
  O   O13       1.0  0.59372  0.19087  0.17578  1.0000
  C   C1        1.0  0.72829  0.44853  0.27301  1.0000
  C   C2        1.0  0.72330  0.58963  0.28382  1.0000
  C   C3        1.0  0.57636  0.11889  0.24773  1.0000
  C   C4        1.0  0.50639  0.11885  0.24771  1.0000
  C   C5        1.0  0.47926  0.04383  0.32256  1.0000
  C   C6        1.0  0.41351  0.04377  0.32253  1.0000
  C   C7        1.0  0.37491  0.11875  0.24766  1.0000
  C   C8        1.0  0.40205  0.19377  0.17279  1.0000
  C   C9        1.0  0.46780  0.19382  0.17282  1.0000
  N   N1        1.0  0.26739  0.22905  0.24652  1.0000
  N   N2        1.0  0.20494  0.22900  0.24651  1.0000
  C   C10       1.0  0.17684  0.11860  0.24758  1.0000
  N   N3        1.0  0.21355  0.00825  0.24869  1.0000
  N   N4        1.0  0.27601  0.00831  0.24872  1.0000
  C   C11       1.0  0.30363  0.11870  0.24762  1.0000
  C   C12       1.0  0.07842  0.04351  0.32240  1.0000
  C   C13       1.0  0.01268  0.04344  0.32236  1.0000
  C   C14       1.0  0.00122  0.19346  0.17263  1.0000
  C   C15       1.0  0.06696  0.19352  0.17266  1.0000
  C   C16       1.0  0.10556  0.11854  0.24755  1.0000
  C   C17       1.0  0.90411  0.11851  0.24753  1.0000
  C   C18       1.0  0.97408  0.11843  0.24748  1.0000
  C   C19       1.0  0.72829  0.09324  0.91657  1.0000
  C   C20       1.0  0.72334  0.08239  0.77549  1.0000
  C   C21       1.0  0.75158  0.78763  0.22219  1.0000
  C   C22       1.0  0.75657  0.64653  0.21136  1.0000
  C   C23       1.0  0.75154  0.14403  0.57743  1.0000
  C   C24       1.0  0.75667  0.15464  0.71849  1.0000
  H   H1        1.0  0.78887  0.58732  0.14104  1.0000
  H   H2        1.0  0.78900  0.22482  0.77763  1.0000
  C   C25       1.0  0.03061  0.89519  0.47038  1.0000
  C   C26       1.0  0.98285  0.96098  0.40464  1.0000
  H   H3        1.0  0.01219  0.84429  0.52119  1.0000
  H   H4        1.0  0.05605  0.84244  0.41133  1.0000
  H   H5        1.0  0.05597  0.95424  0.52323  1.0000
  H   H6        1.0  0.95749  0.90193  0.35178  1.0000
  H   H7        1.0  0.95739  0.01373  0.46370  1.0000
  C   C27       1.0  0.39733  0.34205  0.02479  1.0000
  C   C28       1.0  0.35963  0.27619  0.09049  1.0000
  H   H8        1.0  0.37113  0.39292  0.97397  1.0000
  H   H9        1.0  0.42317  0.39484  0.08387  1.0000
  H   H10       1.0  0.42325  0.28305  0.97196  1.0000
  H   H11       1.0  0.33371  0.33520  0.14333  1.0000
  H   H12       1.0  0.33378  0.22340  0.03141  1.0000
  H   H13       1.0  0.69101  0.64885  0.35415  1.0000
  C   C29       1.0  0.69883  0.86435  0.71795  1.0000
  C   C30       1.0  0.67970  0.98764  0.69566  1.0000
  H   H14       1.0  0.67188  0.80586  0.66868  1.0000
  H   H15       1.0  0.74102  0.84407  0.69482  1.0000
  H   H16       1.0  0.69654  0.85949  0.80548  1.0000
  H   H17       1.0  0.68199  0.99250  0.60814  1.0000
  H   H18       1.0  0.63749  0.00792  0.71879  1.0000
  H   H19       1.0  0.51068  0.98278  0.38354  1.0000
  C   C31       1.0  0.34618  0.03915  0.49189  1.0000
  C   C32       1.0  0.38368  0.96133  0.40485  1.0000
  H   H20       1.0  0.32777  0.98826  0.54272  1.0000
  H   H21       1.0  0.37155  0.09818  0.54471  1.0000
  H   H22       1.0  0.31378  0.08377  0.44727  1.0000
  H   H23       1.0  0.41609  0.91671  0.44947  1.0000
  H   H24       1.0  0.35831  0.90228  0.35203  1.0000
  H   H25       1.0  0.48989  0.25492  0.11187  1.0000
  H   H26       1.0  0.10985  0.98246  0.38338  1.0000
  H   H27       1.0  0.96979  0.25451  0.11166  1.0000
  C   C33       1.0  0.13430  0.19821  0.00333  1.0000
  C   C34       1.0  0.09679  0.27599  0.09039  1.0000
  H   H28       1.0  0.15271  0.24914  0.95253  1.0000
  H   H29       1.0  0.16669  0.15358  0.04793  1.0000
  H   H30       1.0  0.10893  0.13919  0.95048  1.0000
  H   H31       1.0  0.12216  0.33501  0.14325  1.0000
  H   H32       1.0  0.06439  0.32065  0.04579  1.0000
