data_image0
_chemical_formula_structural       O7Zn2OC26N2C2HOCH4OCH3OCH3OCH3OCH3OCH5OCH3OCH4OCH6OCH3
_chemical_formula_sum              "O18 Zn2 C38 N2 H38"
_cell_length_a       11.0266
_cell_length_b       15.5382
_cell_length_c       10.0659
_cell_angle_alpha    95.2962
_cell_angle_beta     79.3023
_cell_angle_gamma    77.9291

_space_group_name_H-M_alt    "P 1"
_space_group_IT_number       1

loop_
  _space_group_symop_operation_xyz
  'x, y, z'

loop_
  _atom_site_type_symbol
  _atom_site_label
  _atom_site_symmetry_multiplicity
  _atom_site_fract_x
  _atom_site_fract_y
  _atom_site_fract_z
  _atom_site_occupancy
  O   O1        1.0  0.47068  0.35697  0.88654  1.0000
  O   O2        1.0  0.13578  0.31517  0.88653  1.0000
  O   O3        1.0  0.36842  0.21000  0.88653  1.0000
  O   O4        1.0  0.23804  0.46215  0.88654  1.0000
  O   O5        1.0  0.32402  0.23016  0.11352  1.0000
  O   O6        1.0  0.09138  0.33533  0.11352  1.0000
  O   O7        1.0  0.42627  0.37713  0.11353  1.0000
  Zn  Zn1       1.0  0.25177  0.35943  0.14956  1.0000
  Zn  Zn2       1.0  0.31028  0.33287  0.85050  1.0000
  O   O8        1.0  0.19363  0.48231  0.11353  1.0000
  C   C1        1.0  0.07177  0.31754  0.00003  1.0000
  C   C2        1.0  0.94718  0.29456  0.00002  1.0000
  C   C3        1.0  0.35986  0.18729  0.00002  1.0000
  C   C4        1.0  0.40050  0.08961  0.00001  1.0000
  C   C5        1.0  0.84541  0.35802  0.00003  1.0000
  C   C6        1.0  0.71665  0.33427  0.00002  1.0000
  C   C7        1.0  0.99682  0.73337  0.00003  1.0000
  C   C8        1.0  0.03502  0.64158  0.00003  1.0000
  C   C9        1.0  0.24994  0.65558  0.00004  1.0000
  C   C10       1.0  0.21175  0.74737  0.00003  1.0000
  C   C11       1.0  0.08519  0.78626  0.00003  1.0000
  C   C12       1.0  0.30012  0.80026  0.00002  1.0000
  C   C13       1.0  0.26194  0.89204  0.00002  1.0000
  C   C14       1.0  0.13538  0.93093  0.00002  1.0000
  C   C15       1.0  0.04700  0.87804  0.00002  1.0000
  C   C16       1.0  0.42669  0.76137  0.00003  1.0000
  C   C17       1.0  0.51506  0.81426  0.00003  1.0000
  C   C18       1.0  0.47687  0.90605  0.00001  1.0000
  C   C19       1.0  0.35031  0.94494  0.00002  1.0000
  C   C20       1.0  0.56525  0.95894  0.00001  1.0000
  C   C21       1.0  0.52706  0.05072  0.00001  1.0000
  C   C22       1.0  0.31212  0.03672  0.00001  1.0000
  C   C23       1.0  0.49029  0.37476  0.00003  1.0000
  C   C24       1.0  0.61488  0.39774  0.00003  1.0000
  C   C25       1.0  0.20219  0.50501  0.00004  1.0000
  C   C26       1.0  0.16156  0.60269  0.00004  1.0000
  N   N1        1.0  0.21185  0.37756  0.35367  1.0000
  N   N2        1.0  0.35021  0.31474  0.64639  1.0000
  C   C27       1.0  0.29639  0.33917  0.42145  1.0000
  C   C28       1.0  0.26567  0.35313  0.57862  1.0000
  H   H1        1.0  0.85362  0.42995  0.00004  1.0000
  O   O9        1.0  0.09830  0.42909  0.42303  1.0000
  C   C29       1.0  0.02567  0.46209  0.32950  1.0000
  H   H2        1.0  0.05990  0.41693  0.22760  1.0000
  H   H3        1.0  0.92151  0.46398  0.37091  1.0000
  H   H4        1.0  0.03688  0.53204  0.31435  1.0000
  H   H5        1.0  0.59902  0.09379  0.00001  1.0000
  O   O10       1.0  0.92405  0.91593  0.00019  1.0000
  C   C30       1.0  0.87252  0.97903  0.11777  1.0000
  H   H6        1.0  0.95243  0.00234  0.15697  1.0000
  H   H7        1.0  0.80536  0.03826  0.09132  1.0000
  H   H8        1.0  0.81809  0.94752  0.20009  1.0000
  O   O11       1.0  0.70689  0.24846  0.00026  1.0000
  C   C31       1.0  0.74205  0.21694  0.11780  1.0000
  H   H9        1.0  0.72980  0.27554  0.19997  1.0000
  H   H10       1.0  0.67930  0.17112  0.15725  1.0000
  H   H11       1.0  0.84548  0.17867  0.09121  1.0000
  O   O12       1.0  0.87381  0.77101  0.00007  1.0000
  C   C32       1.0  0.80400  0.70464  0.00003  1.0000
  H   H12       1.0  0.85431  0.64509  0.04301  1.0000
  H   H13       1.0  0.70491  0.73212  0.06592  1.0000
  H   H14       1.0  0.79634  0.68306  0.89113  1.0000
  O   O13       1.0  0.62476  0.48352  0.99977  1.0000
  C   C33       1.0  0.71263  0.49014  0.88222  1.0000
  H   H15       1.0  0.72094  0.43232  0.80007  1.0000
  H   H16       1.0  0.67877  0.55550  0.84274  1.0000
  H   H17       1.0  0.80923  0.48795  0.90880  1.0000
  O   O14       1.0  0.18918  0.07438  0.99982  1.0000
  C   C34       1.0  0.15615  0.03727  0.88223  1.0000
  H   H18       1.0  0.22209  0.96914  0.84305  1.0000
  H   H19       1.0  0.05397  0.03008  0.90866  1.0000
  H   H20       1.0  0.16568  0.08259  0.79991  1.0000
  H   H21       1.0  0.44533  0.27153  0.58807  1.0000
  H   H22       1.0  0.93897  0.22263  0.99999  1.0000
  O   O15       1.0  0.94933  0.59009  0.99985  1.0000
  C   C35       1.0  0.98797  0.52615  0.88228  1.0000
  H   H23       1.0  0.09466  0.51500  0.84308  1.0000
  H   H24       1.0  0.96417  0.46100  0.90872  1.0000
  H   H25       1.0  0.93632  0.55075  0.79996  1.0000
  O   O16       1.0  0.09839  0.02012  0.00020  1.0000
  C   C36       1.0  0.12155  0.06507  0.11777  1.0000
  H   H26       1.0  0.19864  0.01975  0.15697  1.0000
  H   H27       1.0  0.15400  0.12757  0.09133  1.0000
  H   H28       1.0  0.03073  0.08424  0.20009  1.0000
  H   H29       1.0  0.35299  0.62391  0.00004  1.0000
  O   O17       1.0  0.46399  0.67224  0.00010  1.0000
  C   C37       1.0  0.59465  0.64926  0.00007  1.0000
  H   H30       1.0  0.62508  0.70993  0.04305  1.0000
  H   H31       1.0  0.61383  0.59413  0.06598  1.0000
  H   H32       1.0  0.65068  0.62512  0.89118  1.0000
  H   H33       1.0  0.61811  0.78259  0.00003  1.0000
  H   H34       1.0  0.66830  0.92727  0.00003  1.0000
  H   H35       1.0  0.39150  0.29597  0.36312  1.0000
  O   O18       1.0  0.15216  0.40456  0.64833  1.0000
  C   C38       1.0  0.08685  0.35320  0.73098  1.0000
  H   H36       1.0  0.15770  0.29402  0.75223  1.0000
  H   H37       1.0  0.03344  0.39568  0.83152  1.0000
  H   H38       1.0  0.01660  0.32838  0.67601  1.0000
