data_image0
_chemical_formula_structural       O14Zn4O2C64N4C24H4C4H10C4H12C4H10C4H12C4H10C4H10C4H10C4H14C4H12C4H10C4H10C4H12C4H14C4H10
_chemical_formula_sum              "O16 Zn4 C144 N4 H160"
_cell_length_a       17.6991
_cell_length_b       17.6991
_cell_length_c       16.7762
_cell_angle_alpha    89.9989
_cell_angle_beta     90.0011
_cell_angle_gamma    96.7127

_space_group_name_H-M_alt    "P 1"
_space_group_IT_number       1

loop_
  _space_group_symop_operation_xyz
  'x, y, z'

loop_
  _atom_site_type_symbol
  _atom_site_label
  _atom_site_symmetry_multiplicity
  _atom_site_fract_x
  _atom_site_fract_y
  _atom_site_fract_z
  _atom_site_occupancy
  O   O1        1.0  0.99591  0.09571  0.93383  1.0000
  O   O2        1.0  0.49591  0.59571  0.43383  1.0000
  O   O3        1.0  0.21629  0.10816  0.93381  1.0000
  O   O4        1.0  0.71629  0.60816  0.43381  1.0000
  O   O5        1.0  0.09989  0.99175  0.93382  1.0000
  O   O6        1.0  0.59989  0.49175  0.43382  1.0000
  O   O7        1.0  0.11232  0.21213  0.93383  1.0000
  O   O8        1.0  0.61232  0.71213  0.43383  1.0000
  O   O9        1.0  0.09990  0.99174  0.06639  1.0000
  O   O10       1.0  0.59990  0.49174  0.56639  1.0000
  O   O11       1.0  0.21631  0.10816  0.06638  1.0000
  O   O12       1.0  0.71631  0.60816  0.56639  1.0000
  O   O13       1.0  0.99593  0.09570  0.06641  1.0000
  O   O14       1.0  0.49593  0.59571  0.56641  1.0000
  Zn  Zn1       1.0  0.10612  0.10193  0.08745  1.0000
  Zn  Zn2       1.0  0.60612  0.60193  0.58745  1.0000
  Zn  Zn3       1.0  0.10610  0.10194  0.91277  1.0000
  Zn  Zn4       1.0  0.60610  0.60194  0.41277  1.0000
  O   O15       1.0  0.11234  0.21212  0.06640  1.0000
  O   O16       1.0  0.61234  0.71212  0.56640  1.0000
  C   C1        1.0  0.24450  0.10772  0.00009  1.0000
  C   C2        1.0  0.74450  0.60772  0.50009  1.0000
  C   C3        1.0  0.32851  0.10638  0.00008  1.0000
  C   C4        1.0  0.82852  0.60638  0.50008  1.0000
  C   C5        1.0  0.10034  0.96355  0.00010  1.0000
  C   C6        1.0  0.60034  0.46355  0.50010  1.0000
  C   C7        1.0  0.10169  0.87953  0.00009  1.0000
  C   C8        1.0  0.60169  0.37953  0.50009  1.0000
  C   C9        1.0  0.11188  0.24032  0.00012  1.0000
  C   C10       1.0  0.61188  0.74032  0.50012  1.0000
  C   C11       1.0  0.11054  0.32434  0.00012  1.0000
  C   C12       1.0  0.61054  0.82434  0.50012  1.0000
  C   C13       1.0  0.96772  0.09616  0.00012  1.0000
  C   C14       1.0  0.46772  0.59615  0.50012  1.0000
  C   C15       1.0  0.88371  0.09749  0.00013  1.0000
  C   C16       1.0  0.38371  0.59749  0.50013  1.0000
  C   C17       1.0  0.37713  0.17471  0.00009  1.0000
  C   C18       1.0  0.87713  0.67471  0.50009  1.0000
  C   C19       1.0  0.45607  0.17345  0.00010  1.0000
  C   C20       1.0  0.95607  0.67345  0.50010  1.0000
  C   C21       1.0  0.48640  0.10385  0.00010  1.0000
  C   C22       1.0  0.98640  0.60385  0.50010  1.0000
  C   C23       1.0  0.43778  0.03551  0.00010  1.0000
  C   C24       1.0  0.93778  0.53551  0.50010  1.0000
  C   C25       1.0  0.35884  0.03678  0.00009  1.0000
  C   C26       1.0  0.85884  0.53678  0.50009  1.0000
  C   C27       1.0  0.75614  0.03042  0.00012  1.0000
  C   C28       1.0  0.25614  0.53042  0.50012  1.0000
  C   C29       1.0  0.83509  0.02916  0.00012  1.0000
  C   C30       1.0  0.33509  0.52916  0.50012  1.0000
  C   C31       1.0  0.85338  0.16709  0.00012  1.0000
  C   C32       1.0  0.35338  0.66709  0.50012  1.0000
  C   C33       1.0  0.77444  0.16835  0.00012  1.0000
  C   C34       1.0  0.27444  0.66835  0.50012  1.0000
  C   C35       1.0  0.72582  0.10001  0.00012  1.0000
  C   C36       1.0  0.22582  0.60001  0.50012  1.0000
  C   C37       1.0  0.64022  0.10138  0.00011  1.0000
  C   C38       1.0  0.14022  0.60138  0.50011  1.0000
  C   C39       1.0  0.57200  0.10248  0.00010  1.0000
  C   C40       1.0  0.07200  0.60248  0.50010  1.0000
  C   C41       1.0  0.17128  0.84921  0.00008  1.0000
  C   C42       1.0  0.67128  0.34921  0.50008  1.0000
  C   C43       1.0  0.17254  0.77026  0.00009  1.0000
  C   C44       1.0  0.67254  0.27026  0.50009  1.0000
  C   C45       1.0  0.10420  0.72165  0.00010  1.0000
  C   C46       1.0  0.60420  0.22165  0.50010  1.0000
  C   C47       1.0  0.03460  0.75198  0.00011  1.0000
  C   C48       1.0  0.53460  0.25198  0.50011  1.0000
  C   C49       1.0  0.03335  0.83092  0.00011  1.0000
  C   C50       1.0  0.53335  0.33092  0.50011  1.0000
  C   C51       1.0  0.03968  0.43361  0.00012  1.0000
  C   C52       1.0  0.53968  0.93361  0.50012  1.0000
  C   C53       1.0  0.04094  0.35466  0.00012  1.0000
  C   C54       1.0  0.54094  0.85466  0.50012  1.0000
  C   C55       1.0  0.17887  0.37296  0.00011  1.0000
  C   C56       1.0  0.67887  0.87296  0.50011  1.0000
  C   C57       1.0  0.17761  0.45190  0.00010  1.0000
  C   C58       1.0  0.67761  0.95190  0.50010  1.0000
  C   C59       1.0  0.10801  0.48222  0.00012  1.0000
  C   C60       1.0  0.60801  0.98222  0.50012  1.0000
  C   C61       1.0  0.10665  0.56782  0.00011  1.0000
  C   C62       1.0  0.60665  0.06782  0.50011  1.0000
  C   C63       1.0  0.10557  0.63605  0.00010  1.0000
  C   C64       1.0  0.60557  0.13605  0.50010  1.0000
  N   N1        1.0  0.10613  0.10192  0.20666  1.0000
  N   N2        1.0  0.60613  0.60192  0.70666  1.0000
  N   N3        1.0  0.10609  0.10194  0.79356  1.0000
  N   N4        1.0  0.60609  0.60194  0.29356  1.0000
  C   C65       1.0  0.05457  0.05040  0.24838  1.0000
  C   C66       1.0  0.55457  0.55040  0.74838  1.0000
  C   C67       1.0  0.05456  0.05040  0.33183  1.0000
  C   C68       1.0  0.55456  0.55039  0.83183  1.0000
  C   C69       1.0  0.10612  0.10193  0.37356  1.0000
  C   C70       1.0  0.60612  0.60193  0.87356  1.0000
  C   C71       1.0  0.15768  0.15346  0.33183  1.0000
  C   C72       1.0  0.65768  0.65346  0.83183  1.0000
  C   C73       1.0  0.15769  0.15345  0.24838  1.0000
  C   C74       1.0  0.65769  0.65345  0.74838  1.0000
  C   C75       1.0  0.15766  0.15347  0.66838  1.0000
  C   C76       1.0  0.65766  0.65347  0.16838  1.0000
  C   C77       1.0  0.15764  0.15347  0.75184  1.0000
  C   C78       1.0  0.65764  0.65347  0.25184  1.0000
  C   C79       1.0  0.05453  0.05041  0.75183  1.0000
  C   C80       1.0  0.55453  0.55041  0.25183  1.0000
  C   C81       1.0  0.05454  0.05041  0.66838  1.0000
  C   C82       1.0  0.55454  0.55041  0.16838  1.0000
  C   C83       1.0  0.10611  0.10194  0.62666  1.0000
  C   C84       1.0  0.60611  0.60194  0.12666  1.0000
  C   C85       1.0  0.10611  0.10194  0.53617  1.0000
  C   C86       1.0  0.60611  0.60194  0.03617  1.0000
  C   C87       1.0  0.10611  0.10193  0.46405  1.0000
  C   C88       1.0  0.60611  0.60193  0.96405  1.0000
  H   H1        1.0  0.35245  0.23138  0.00009  1.0000
  H   H2        1.0  0.85245  0.73138  0.50009  1.0000
  H   H3        1.0  0.01258  0.00844  0.36580  1.0000
  H   H4        1.0  0.51258  0.50844  0.86580  1.0000
  C   C89       1.0  0.20233  0.28455  0.64270  1.0000
  C   C90       1.0  0.70233  0.78455  0.14270  1.0000
  C   C91       1.0  0.21433  0.21012  0.62253  1.0000
  C   C92       1.0  0.71433  0.71012  0.12254  1.0000
  H   H5        1.0  0.23732  0.31953  0.61439  1.0000
  H   H6        1.0  0.73732  0.81952  0.11439  1.0000
  H   H7        1.0  0.20970  0.29192  0.69837  1.0000
  H   H8        1.0  0.70970  0.79192  0.19837  1.0000
  H   H9        1.0  0.15184  0.29270  0.62901  1.0000
  H   H10       1.0  0.65184  0.79270  0.12901  1.0000
  H   H11       1.0  0.26483  0.20197  0.63623  1.0000
  H   H12       1.0  0.76483  0.70197  0.13623  1.0000
  H   H13       1.0  0.20697  0.20275  0.56686  1.0000
  H   H14       1.0  0.70697  0.70275  0.06686  1.0000
  C   C93       1.0  0.65676  0.95181  0.06826  1.0000
  C   C94       1.0  0.15676  0.45181  0.56826  1.0000
  C   C95       1.0  0.70271  0.95530  0.00011  1.0000
  C   C96       1.0  0.20271  0.45530  0.50011  1.0000
  H   H15       1.0  0.62377  0.90543  0.06826  1.0000
  H   H16       1.0  0.12377  0.40543  0.56826  1.0000
  H   H17       1.0  0.62740  0.99343  0.06826  1.0000
  H   H18       1.0  0.12740  0.49343  0.56826  1.0000
  H   H19       1.0  0.68794  0.95418  0.11449  1.0000
  H   H20       1.0  0.18794  0.45418  0.61449  1.0000
  H   H21       1.0  0.67152  0.95294  0.95388  1.0000
  H   H22       1.0  0.17153  0.45294  0.45388  1.0000
  H   H23       1.0  0.73207  0.91367  0.00011  1.0000
  H   H24       1.0  0.23207  0.41367  0.50011  1.0000
  H   H25       1.0  0.98529  0.31508  0.00013  1.0000
  H   H26       1.0  0.48529  0.81508  0.50013  1.0000
  C   C97       1.0  0.22970  0.97747  0.00009  1.0000
  C   C98       1.0  0.72970  0.47747  0.50009  1.0000
  C   C99       1.0  0.30539  0.96166  0.00009  1.0000
  C   C100      1.0  0.80539  0.46166  0.50009  1.0000
  H   H27       1.0  0.19671  0.93109  0.00009  1.0000
  H   H28       1.0  0.69671  0.43109  0.50009  1.0000
  H   H29       1.0  0.22052  0.00601  0.95386  1.0000
  H   H30       1.0  0.72053  0.50601  0.45386  1.0000
  H   H31       1.0  0.22053  0.00601  0.04632  1.0000
  H   H32       1.0  0.72053  0.50601  0.54632  1.0000
  H   H33       1.0  0.31456  0.93312  0.95385  1.0000
  H   H34       1.0  0.81456  0.43312  0.45385  1.0000
  H   H35       1.0  0.31457  0.93311  0.04632  1.0000
  H   H36       1.0  0.81457  0.43311  0.54632  1.0000
  C   C101      1.0  0.91742  0.71209  0.93197  1.0000
  C   C102      1.0  0.41742  0.21209  0.43197  1.0000
  C   C103      1.0  0.95949  0.69854  0.00012  1.0000
  C   C104      1.0  0.45949  0.19854  0.50012  1.0000
  H   H37       1.0  0.87104  0.67910  0.93198  1.0000
  H   H38       1.0  0.37104  0.17910  0.43198  1.0000
  H   H39       1.0  0.94595  0.70290  0.88575  1.0000
  H   H40       1.0  0.44595  0.20290  0.38575  1.0000
  H   H41       1.0  0.90671  0.76344  0.93199  1.0000
  H   H42       1.0  0.40671  0.26344  0.43199  1.0000
  H   H43       1.0  0.97020  0.64718  0.00011  1.0000
  H   H44       1.0  0.47020  0.14718  0.50011  1.0000
  H   H45       1.0  0.93094  0.70772  0.04636  1.0000
  H   H46       1.0  0.43094  0.20772  0.54636  1.0000
  H   H47       1.0  0.19966  0.19541  0.36582  1.0000
  H   H48       1.0  0.69966  0.69541  0.86582  1.0000
  C   C105      1.0  0.30775  0.85935  0.00007  1.0000
  C   C106      1.0  0.80775  0.35935  0.50007  1.0000
  C   C107      1.0  0.24640  0.90265  0.00007  1.0000
  C   C108      1.0  0.74640  0.40264  0.50007  1.0000
  H   H49       1.0  0.35412  0.89234  0.00007  1.0000
  H   H50       1.0  0.85412  0.39234  0.50007  1.0000
  H   H51       1.0  0.30536  0.82818  0.95384  1.0000
  H   H52       1.0  0.80536  0.32818  0.45384  1.0000
  H   H53       1.0  0.30537  0.82818  0.04631  1.0000
  H   H54       1.0  0.80537  0.32818  0.54631  1.0000
  H   H55       1.0  0.24877  0.93381  0.95383  1.0000
  H   H56       1.0  0.74877  0.43381  0.45383  1.0000
  H   H57       1.0  0.24878  0.93383  0.04630  1.0000
  H   H58       1.0  0.74878  0.43383  0.54631  1.0000
  C   C109      1.0  0.25396  0.69210  0.93193  1.0000
  C   C110      1.0  0.75396  0.19210  0.43193  1.0000
  C   C111      1.0  0.24904  0.73693  0.00008  1.0000
  C   C112      1.0  0.74904  0.23693  0.50008  1.0000
  H   H59       1.0  0.30119  0.67152  0.93192  1.0000
  H   H60       1.0  0.80119  0.17152  0.43192  1.0000
  H   H61       1.0  0.25059  0.72251  0.88570  1.0000
  H   H62       1.0  0.75059  0.22251  0.38570  1.0000
  H   H63       1.0  0.21344  0.65184  0.93195  1.0000
  H   H64       1.0  0.71344  0.15184  0.43195  1.0000
  H   H65       1.0  0.28956  0.77719  0.00005  1.0000
  H   H66       1.0  0.78956  0.27719  0.50005  1.0000
  H   H67       1.0  0.25241  0.70652  0.04631  1.0000
  H   H68       1.0  0.75241  0.20652  0.54631  1.0000
  C   C113      1.0  0.95191  0.90909  0.93196  1.0000
  C   C114      1.0  0.45191  0.40909  0.43196  1.0000
  C   C115      1.0  0.95685  0.86426  0.00012  1.0000
  C   C116      1.0  0.45685  0.36426  0.50011  1.0000
  H   H69       1.0  0.90468  0.92968  0.93197  1.0000
  H   H70       1.0  0.40468  0.42968  0.43197  1.0000
  H   H71       1.0  0.95525  0.87867  0.88574  1.0000
  H   H72       1.0  0.45525  0.37868  0.38574  1.0000
  H   H73       1.0  0.99243  0.94934  0.93197  1.0000
  H   H74       1.0  0.49243  0.44934  0.43197  1.0000
  H   H75       1.0  0.91633  0.82401  0.00011  1.0000
  H   H76       1.0  0.41633  0.32401  0.50011  1.0000
  H   H77       1.0  0.95349  0.89468  0.04635  1.0000
  H   H78       1.0  0.45350  0.39468  0.54635  1.0000
  C   C117      1.0  0.31509  0.39897  0.00008  1.0000
  C   C118      1.0  0.81509  0.89897  0.50008  1.0000
  C   C119      1.0  0.25538  0.33962  0.00009  1.0000
  C   C120      1.0  0.75538  0.83962  0.50009  1.0000
  H   H79       1.0  0.36232  0.37839  0.00006  1.0000
  H   H80       1.0  0.86232  0.87839  0.50006  1.0000
  H   H81       1.0  0.31174  0.42938  0.04631  1.0000
  H   H82       1.0  0.81174  0.92938  0.54631  1.0000
  H   H83       1.0  0.31171  0.42938  0.95384  1.0000
  H   H84       1.0  0.81171  0.92938  0.45384  1.0000
  H   H85       1.0  0.25875  0.30922  0.04633  1.0000
  H   H86       1.0  0.75875  0.80922  0.54633  1.0000
  H   H87       1.0  0.25873  0.30920  0.95386  1.0000
  H   H88       1.0  0.75873  0.80920  0.45386  1.0000
  H   H89       1.0  0.01258  0.00844  0.21441  1.0000
  H   H90       1.0  0.51259  0.50844  0.71441  1.0000
  H   H91       1.0  0.01255  0.00845  0.63440  1.0000
  H   H92       1.0  0.51256  0.50845  0.13440  1.0000
  C   C121      1.0  0.55546  0.25204  0.93194  1.0000
  C   C122      1.0  0.05546  0.75204  0.43194  1.0000
  C   C123      1.0  0.50951  0.24856  0.00009  1.0000
  C   C124      1.0  0.00951  0.74856  0.50009  1.0000
  H   H93       1.0  0.58845  0.29842  0.93194  1.0000
  H   H94       1.0  0.08846  0.79842  0.43194  1.0000
  H   H95       1.0  0.52429  0.24967  0.88572  1.0000
  H   H96       1.0  0.02429  0.74967  0.38572  1.0000
  H   H97       1.0  0.58482  0.21041  0.93196  1.0000
  H   H98       1.0  0.08482  0.71041  0.43196  1.0000
  H   H99       1.0  0.48015  0.29019  0.00007  1.0000
  H   H100      1.0  0.98015  0.79019  0.50007  1.0000
  H   H101      1.0  0.54069  0.25094  0.04633  1.0000
  H   H102      1.0  0.04069  0.75094  0.54633  1.0000
  H   H103      1.0  0.01254  0.00846  0.78580  1.0000
  H   H104      1.0  0.51254  0.50845  0.28581  1.0000
  C   C125      1.0  0.55067  0.97233  0.00010  1.0000
  C   C126      1.0  0.05067  0.47233  0.50010  1.0000
  C   C127      1.0  0.47111  0.95901  0.00010  1.0000
  C   C128      1.0  0.97111  0.45901  0.50010  1.0000
  H   H105      1.0  0.57124  0.92510  0.00009  1.0000
  H   H106      1.0  0.07124  0.42510  0.50009  1.0000
  H   H107      1.0  0.56736  0.00045  0.04633  1.0000
  H   H108      1.0  0.06736  0.50045  0.54633  1.0000
  H   H109      1.0  0.56736  0.00046  0.95386  1.0000
  H   H110      1.0  0.06735  0.50046  0.45386  1.0000
  H   H111      1.0  0.45442  0.93088  0.04633  1.0000
  H   H112      1.0  0.95442  0.43088  0.54633  1.0000
  H   H113      1.0  0.45441  0.93088  0.95386  1.0000
  H   H114      1.0  0.95441  0.43088  0.45386  1.0000
  C   C129      1.0  0.69626  0.24978  0.06825  1.0000
  C   C130      1.0  0.19626  0.74978  0.56825  1.0000
  C   C131      1.0  0.74110  0.24485  0.00011  1.0000
  C   C132      1.0  0.24110  0.74485  0.50011  1.0000
  H   H115      1.0  0.67567  0.29701  0.06824  1.0000
  H   H116      1.0  0.17567  0.79701  0.56824  1.0000
  H   H117      1.0  0.72667  0.24643  0.11448  1.0000
  H   H118      1.0  0.22667  0.74643  0.61448  1.0000
  H   H119      1.0  0.65601  0.20926  0.06824  1.0000
  H   H120      1.0  0.15601  0.70926  0.56824  1.0000
  H   H121      1.0  0.78135  0.28537  0.00012  1.0000
  H   H122      1.0  0.28135  0.78537  0.50012  1.0000
  H   H123      1.0  0.71068  0.24820  0.95387  1.0000
  H   H124      1.0  0.21068  0.74821  0.45387  1.0000
  C   C133      1.0  0.95278  0.24569  0.93198  1.0000
  C   C134      1.0  0.45278  0.74569  0.43198  1.0000
  C   C135      1.0  0.90682  0.24221  0.00013  1.0000
  C   C136      1.0  0.40682  0.74221  0.50013  1.0000
  H   H125      1.0  0.98577  0.29207  0.93199  1.0000
  H   H126      1.0  0.48577  0.79207  0.43199  1.0000
  H   H127      1.0  0.92160  0.24332  0.88575  1.0000
  H   H128      1.0  0.42160  0.74332  0.38575  1.0000
  H   H129      1.0  0.98213  0.20406  0.93199  1.0000
  H   H130      1.0  0.48213  0.70406  0.43199  1.0000
  H   H131      1.0  0.87746  0.28384  0.00011  1.0000
  H   H132      1.0  0.37746  0.78384  0.50011  1.0000
  H   H133      1.0  0.93800  0.24459  0.04637  1.0000
  H   H134      1.0  0.43800  0.74459  0.54636  1.0000
  H   H135      1.0  0.19963  0.19544  0.78581  1.0000
  H   H136      1.0  0.69963  0.69544  0.28581  1.0000
  C   C137      1.0  0.25961  0.25533  0.25677  1.0000
  C   C138      1.0  0.75961  0.75533  0.75677  1.0000
  C   C139      1.0  0.21437  0.21010  0.20252  1.0000
  C   C140      1.0  0.71437  0.71010  0.70252  1.0000
  H   H137      1.0  0.29460  0.29030  0.22846  1.0000
  H   H138      1.0  0.79460  0.79030  0.72846  1.0000
  H   H139      1.0  0.28677  0.22386  0.28932  1.0000
  H   H140      1.0  0.78677  0.72386  0.78932  1.0000
  H   H141      1.0  0.22815  0.28252  0.28931  1.0000
  H   H142      1.0  0.72815  0.78252  0.78931  1.0000
  H   H143      1.0  0.24583  0.18291  0.16998  1.0000
  H   H144      1.0  0.74583  0.68291  0.66998  1.0000
  H   H145      1.0  0.18720  0.24157  0.16995  1.0000
  H   H146      1.0  0.68720  0.74157  0.66995  1.0000
  H   H147      1.0  0.85978  0.97248  0.00012  1.0000
  H   H148      1.0  0.35978  0.47248  0.50012  1.0000
  H   H149      1.0  0.23326  0.49148  0.00009  1.0000
  H   H150      1.0  0.73326  0.99148  0.50009  1.0000
  C   C141      1.0  0.90347  0.40759  0.00014  1.0000
  C   C142      1.0  0.40347  0.90759  0.50014  1.0000
  C   C143      1.0  0.96318  0.46694  0.00013  1.0000
  C   C144      1.0  0.46318  0.96693  0.50013  1.0000
  H   H151      1.0  0.85623  0.42817  0.00014  1.0000
  H   H152      1.0  0.35623  0.92816  0.50014  1.0000
  H   H153      1.0  0.90683  0.37718  0.04637  1.0000
  H   H154      1.0  0.40683  0.87718  0.54637  1.0000
  H   H155      1.0  0.90683  0.37718  0.95390  1.0000
  H   H156      1.0  0.40683  0.87718  0.45390  1.0000
  H   H157      1.0  0.95982  0.49734  0.04637  1.0000
  H   H158      1.0  0.45982  0.99734  0.54637  1.0000
  H   H159      1.0  0.95981  0.49736  0.95390  1.0000
  H   H160      1.0  0.45981  0.99736  0.45390  1.0000
