data_image0
_chemical_formula_structural       O7Zn2OC18N2H2C2H5C2H7
_chemical_formula_sum              "O8 Zn2 C22 N2 H14"
_cell_length_a       9.06522
_cell_length_b       15.9445
_cell_length_c       8.14024
_cell_angle_alpha    90.0024
_cell_angle_beta     89.9978
_cell_angle_gamma    84.2449

_space_group_name_H-M_alt    "P 1"
_space_group_IT_number       1

loop_
  _space_group_symop_operation_xyz
  'x, y, z'

loop_
  _atom_site_type_symbol
  _atom_site_label
  _atom_site_symmetry_multiplicity
  _atom_site_fract_x
  _atom_site_fract_y
  _atom_site_fract_z
  _atom_site_occupancy
  O   O1        1.0  0.95748  0.12315  0.86343  1.0000
  O   O2        1.0  0.52795  0.13326  0.86342  1.0000
  O   O3        1.0  0.75449  0.00602  0.86341  1.0000
  O   O4        1.0  0.73094  0.25039  0.86344  1.0000
  O   O5        1.0  0.75448  0.00601  0.13664  1.0000
  O   O6        1.0  0.52794  0.13326  0.13665  1.0000
  O   O7        1.0  0.95746  0.12315  0.13666  1.0000
  Zn  Zn1       1.0  0.74270  0.12820  0.18004  1.0000
  Zn  Zn2       1.0  0.74272  0.12821  0.82005  1.0000
  O   O8        1.0  0.73093  0.25039  0.13667  1.0000
  C   C1        1.0  0.47298  0.13229  0.00004  1.0000
  C   C2        1.0  0.30921  0.12938  0.00003  1.0000
  C   C3        1.0  0.75352  0.97471  0.00002  1.0000
  C   C4        1.0  0.75063  0.88144  1.00000  1.0000
  C   C5        1.0  0.88398  0.64669  0.00003  1.0000
  C   C6        1.0  0.81208  0.59558  0.86532  1.0000
  C   C7        1.0  0.74529  0.71068  0.00002  1.0000
  C   C8        1.0  0.81203  0.59560  0.13470  1.0000
  C   C9        1.0  0.74013  0.54573  0.00005  1.0000
  C   C10       1.0  0.67342  0.66080  0.86519  1.0000
  C   C11       1.0  0.67340  0.66082  0.13470  1.0000
  C   C12       1.0  0.60140  0.60974  0.99995  1.0000
  C   C13       1.0  0.74826  0.80570  0.00000  1.0000
  C   C14       1.0  0.73715  0.45071  0.00005  1.0000
  C   C15       1.0  0.01243  0.12412  0.00004  1.0000
  C   C16       1.0  0.17621  0.12702  0.00003  1.0000
  C   C17       1.0  0.73190  0.28169  0.00006  1.0000
  C   C18       1.0  0.73478  0.37496  0.00007  1.0000
  N   N1        1.0  0.74270  0.12820  0.42572  1.0000
  N   N2        1.0  0.74273  0.12820  0.57436  1.0000
  H   H1        1.0  0.00344  0.66322  0.99990  1.0000
  H   H2        1.0  0.87065  0.56708  0.75143  1.0000
  C   C19       1.0  0.36775  0.62085  0.85868  1.0000
  C   C20       1.0  0.44000  0.58763  0.99985  1.0000
  H   H3        1.0  0.26812  0.60720  0.85862  1.0000
  H   H4        1.0  0.36875  0.68036  0.85779  1.0000
  H   H5        1.0  0.41736  0.59752  0.76390  1.0000
  H   H6        1.0  0.39039  0.61097  0.09463  1.0000
  H   H7        1.0  0.43899  0.52811  0.00076  1.0000
  C   C21       1.0  0.66726  0.66628  0.42939  1.0000
  C   C22       1.0  0.59440  0.69933  0.28845  1.0000
  H   H8        1.0  0.61850  0.69006  0.52432  1.0000
  H   H9        1.0  0.66560  0.60681  0.43104  1.0000
  H   H10       1.0  0.76710  0.67956  0.42840  1.0000
  H   H11       1.0  0.49456  0.68604  0.28943  1.0000
  H   H12       1.0  0.59604  0.75881  0.28679  1.0000
  H   H13       1.0  0.87063  0.56711  0.24858  1.0000
  H   H14       1.0  0.61489  0.68917  0.75118  1.0000
