data_image0
_chemical_formula_structural       O21Cu6O3C96N3C30N3H12F12H12F3H6F3H3F3H12F6H3F3
_chemical_formula_sum              "O24 Cu6 C126 N6 H48 F30"
_cell_length_a       17.0194
_cell_length_b       17.0383
_cell_length_c       14.4215
_cell_angle_alpha    89.9957
_cell_angle_beta     93.8836
_cell_angle_gamma    87.2469

_space_group_name_H-M_alt    "P 1"
_space_group_IT_number       1

loop_
  _space_group_symop_operation_xyz
  'x, y, z'

loop_
  _atom_site_type_symbol
  _atom_site_label
  _atom_site_symmetry_multiplicity
  _atom_site_fract_x
  _atom_site_fract_y
  _atom_site_fract_z
  _atom_site_occupancy
  O   O1        1.0  0.05336  0.09964  0.16114  1.0000
  O   O2        1.0  0.38670  0.43297  0.49448  1.0000
  O   O3        1.0  0.72003  0.76630  0.82781  1.0000
  O   O4        1.0  0.82455  0.11233  0.14289  1.0000
  O   O5        1.0  0.15788  0.44566  0.47623  1.0000
  O   O6        1.0  0.49122  0.77899  0.80956  1.0000
  O   O7        1.0  0.93760  0.99217  0.15190  1.0000
  O   O8        1.0  0.27093  0.32550  0.48524  1.0000
  O   O9        1.0  0.60426  0.65883  0.81857  1.0000
  O   O10       1.0  0.94032  0.21980  0.15213  1.0000
  O   O11       1.0  0.27365  0.55313  0.48547  1.0000
  O   O12       1.0  0.60698  0.88646  0.81880  1.0000
  O   O13       1.0  0.93758  0.99218  0.99768  1.0000
  O   O14       1.0  0.27091  0.32552  0.33101  1.0000
  O   O15       1.0  0.60424  0.65885  0.66434  1.0000
  O   O16       1.0  0.82453  0.11235  0.98867  1.0000
  O   O17       1.0  0.15787  0.44568  0.32200  1.0000
  O   O18       1.0  0.49120  0.77901  0.65533  1.0000
  O   O19       1.0  0.05334  0.09965  0.00692  1.0000
  O   O20       1.0  0.38668  0.43299  0.34025  1.0000
  O   O21       1.0  0.72001  0.76632  0.67358  1.0000
  Cu  Cu1       1.0  0.93894  0.10600  0.98371  1.0000
  Cu  Cu2       1.0  0.27227  0.43933  0.31704  1.0000
  Cu  Cu3       1.0  0.60560  0.77267  0.65038  1.0000
  Cu  Cu4       1.0  0.93896  0.10598  0.16610  1.0000
  Cu  Cu5       1.0  0.27229  0.43931  0.49943  1.0000
  Cu  Cu6       1.0  0.60563  0.77265  0.83277  1.0000
  O   O22       1.0  0.94030  0.21981  0.99791  1.0000
  O   O23       1.0  0.27363  0.55315  0.33124  1.0000
  O   O24       1.0  0.60696  0.88648  0.66458  1.0000
  C   C1        1.0  0.79512  0.11185  0.06343  1.0000
  C   C2        1.0  0.12845  0.44519  0.39677  1.0000
  C   C3        1.0  0.46179  0.77852  0.73010  1.0000
  C   C4        1.0  0.70745  0.11041  0.05644  1.0000
  C   C5        1.0  0.04079  0.44374  0.38977  1.0000
  C   C6        1.0  0.37412  0.77707  0.72311  1.0000
  C   C7        1.0  0.66627  0.10972  0.13722  1.0000
  C   C8        1.0  0.99960  0.44305  0.47055  1.0000
  C   C9        1.0  0.33294  0.77638  0.80388  1.0000
  C   C10       1.0  0.58390  0.10837  0.13063  1.0000
  C   C11       1.0  0.91723  0.44170  0.46397  1.0000
  C   C12       1.0  0.25056  0.77504  0.79730  1.0000
  C   C13       1.0  0.54271  0.10770  0.04327  1.0000
  C   C14       1.0  0.87604  0.44104  0.37660  1.0000
  C   C15       1.0  0.20938  0.77437  0.70994  1.0000
  C   C16       1.0  0.58390  0.10839  0.96249  1.0000
  C   C17       1.0  0.91723  0.44173  0.29582  1.0000
  C   C18       1.0  0.25056  0.77506  0.62916  1.0000
  C   C19       1.0  0.66627  0.10975  0.96907  1.0000
  C   C20       1.0  0.99960  0.44308  0.30241  1.0000
  C   C21       1.0  0.33294  0.77641  0.63574  1.0000
  C   C22       1.0  0.29400  0.10362  0.01918  1.0000
  C   C23       1.0  0.62733  0.43695  0.35252  1.0000
  C   C24       1.0  0.96067  0.77029  0.68585  1.0000
  C   C25       1.0  0.21162  0.10226  0.01260  1.0000
  C   C26       1.0  0.54496  0.43560  0.34594  1.0000
  C   C27       1.0  0.87829  0.76893  0.67927  1.0000
  C   C28       1.0  0.21163  0.10224  0.18075  1.0000
  C   C29       1.0  0.54496  0.43557  0.51408  1.0000
  C   C30       1.0  0.87830  0.76891  0.84741  1.0000
  C   C31       1.0  0.29400  0.10359  0.18732  1.0000
  C   C32       1.0  0.62734  0.43692  0.52066  1.0000
  C   C33       1.0  0.96067  0.77026  0.85399  1.0000
  C   C34       1.0  0.33518  0.10429  0.10654  1.0000
  C   C35       1.0  0.66852  0.43762  0.43988  1.0000
  C   C36       1.0  0.00185  0.77095  0.77321  1.0000
  C   C37       1.0  0.45851  0.10632  0.03654  1.0000
  C   C38       1.0  0.79184  0.43966  0.36987  1.0000
  C   C39       1.0  0.12518  0.77299  0.70320  1.0000
  C   C40       1.0  0.41938  0.10567  0.11328  1.0000
  C   C41       1.0  0.75271  0.43900  0.44661  1.0000
  C   C42       1.0  0.08605  0.77234  0.77994  1.0000
  C   C43       1.0  0.93511  0.96305  0.07459  1.0000
  C   C44       1.0  0.26845  0.29638  0.40792  1.0000
  C   C45       1.0  0.60178  0.62972  0.74126  1.0000
  C   C46       1.0  0.92773  0.87626  0.07400  1.0000
  C   C47       1.0  0.26107  0.20960  0.40734  1.0000
  C   C48       1.0  0.59440  0.54293  0.74067  1.0000
  C   C49       1.0  0.99549  0.82609  0.07941  1.0000
  C   C50       1.0  0.32883  0.15943  0.41274  1.0000
  C   C51       1.0  0.66216  0.49276  0.74607  1.0000
  C   C52       1.0  0.98855  0.74455  0.07886  1.0000
  C   C53       1.0  0.32189  0.07788  0.41220  1.0000
  C   C54       1.0  0.65522  0.41122  0.74553  1.0000
  C   C55       1.0  0.91385  0.71318  0.07291  1.0000
  C   C56       1.0  0.24719  0.04651  0.40624  1.0000
  C   C57       1.0  0.58052  0.37984  0.73957  1.0000
  C   C58       1.0  0.84609  0.76335  0.06751  1.0000
  C   C59       1.0  0.17942  0.09668  0.40084  1.0000
  C   C60       1.0  0.51276  0.43002  0.73417  1.0000
  C   C61       1.0  0.85303  0.84489  0.06806  1.0000
  C   C62       1.0  0.18636  0.17823  0.40139  1.0000
  C   C63       1.0  0.51970  0.51156  0.73472  1.0000
  C   C64       1.0  0.88934  0.46744  0.07097  1.0000
  C   C65       1.0  0.22267  0.80077  0.40430  1.0000
  C   C66       1.0  0.55600  0.13410  0.73763  1.0000
  C   C67       1.0  0.88240  0.38589  0.07041  1.0000
  C   C68       1.0  0.21574  0.71922  0.40374  1.0000
  C   C69       1.0  0.54907  0.05255  0.73708  1.0000
  C   C70       1.0  0.02487  0.36709  0.08177  1.0000
  C   C71       1.0  0.35820  0.70043  0.41510  1.0000
  C   C72       1.0  0.69153  0.03376  0.74844  1.0000
  C   C73       1.0  0.03180  0.44864  0.08231  1.0000
  C   C74       1.0  0.36513  0.78197  0.41565  1.0000
  C   C75       1.0  0.69847  0.11530  0.74898  1.0000
  C   C76       1.0  0.96404  0.49881  0.07692  1.0000
  C   C77       1.0  0.29737  0.83214  0.41025  1.0000
  C   C78       1.0  0.63070  0.16547  0.74359  1.0000
  C   C79       1.0  0.90676  0.62982  0.07235  1.0000
  C   C80       1.0  0.24009  0.96316  0.40568  1.0000
  C   C81       1.0  0.57343  0.29649  0.73901  1.0000
  C   C82       1.0  0.97113  0.58216  0.07749  1.0000
  C   C83       1.0  0.30446  0.91549  0.41082  1.0000
  C   C84       1.0  0.63780  0.24882  0.74415  1.0000
  C   C85       1.0  0.08278  0.10013  0.08638  1.0000
  C   C86       1.0  0.41611  0.43346  0.41971  1.0000
  C   C87       1.0  0.74944  0.76680  0.75305  1.0000
  C   C88       1.0  0.17044  0.10158  0.09338  1.0000
  C   C89       1.0  0.50378  0.43491  0.42671  1.0000
  C   C90       1.0  0.83711  0.76824  0.76004  1.0000
  C   C91       1.0  0.94278  0.24893  0.07522  1.0000
  C   C92       1.0  0.27611  0.58227  0.40855  1.0000
  C   C93       1.0  0.60945  0.91560  0.74189  1.0000
  C   C94       1.0  0.95016  0.33572  0.07581  1.0000
  C   C95       1.0  0.28350  0.66905  0.40915  1.0000
  C   C96       1.0  0.61683  0.00239  0.74248  1.0000
  N   N1        1.0  0.93893  0.10602  0.85543  1.0000
  N   N2        1.0  0.27226  0.43935  0.18876  1.0000
  N   N3        1.0  0.60559  0.77268  0.52209  1.0000
  C   C97       1.0  0.88664  0.16155  0.60161  1.0000
  C   C98       1.0  0.21998  0.49489  0.93494  1.0000
  C   C99       1.0  0.55331  0.82822  0.26827  1.0000
  C   C100      1.0  0.95893  0.17665  0.54557  1.0000
  C   C101      1.0  0.29227  0.50998  0.87891  1.0000
  C   C102      1.0  0.62560  0.84332  0.21224  1.0000
  C   C103      1.0  0.93894  0.10600  0.66627  1.0000
  C   C104      1.0  0.27228  0.43933  0.99960  1.0000
  C   C105      1.0  0.60561  0.77266  0.33293  1.0000
  C   C106      1.0  0.86667  0.09092  0.53821  1.0000
  C   C107      1.0  0.20000  0.42425  0.87155  1.0000
  C   C108      1.0  0.53334  0.75758  0.20488  1.0000
  C   C109      1.0  0.93895  0.10598  0.48355  1.0000
  C   C110      1.0  0.27229  0.43931  0.81688  1.0000
  C   C111      1.0  0.60562  0.77265  0.15022  1.0000
  C   C112      1.0  0.01127  0.12113  0.61160  1.0000
  C   C113      1.0  0.34461  0.45446  0.94493  1.0000
  C   C114      1.0  0.67794  0.78780  0.27826  1.0000
  C   C115      1.0  0.91896  0.03537  0.60424  1.0000
  C   C116      1.0  0.25230  0.36870  0.93757  1.0000
  C   C117      1.0  0.58563  0.70203  0.27090  1.0000
  C   C118      1.0  0.99131  0.05043  0.54823  1.0000
  C   C119      1.0  0.32464  0.38377  0.88157  1.0000
  C   C120      1.0  0.65797  0.71710  0.21490  1.0000
  C   C121      1.0  0.93894  0.10601  0.77153  1.0000
  C   C122      1.0  0.27227  0.43934  0.10486  1.0000
  C   C123      1.0  0.60560  0.77268  0.43820  1.0000
  C   C124      1.0  0.93897  0.10597  0.37829  1.0000
  C   C125      1.0  0.27230  0.43930  0.71162  1.0000
  C   C126      1.0  0.60564  0.77263  0.04496  1.0000
  N   N4        1.0  0.93897  0.10596  0.29438  1.0000
  N   N5        1.0  0.27231  0.43929  0.62772  1.0000
  N   N6        1.0  0.60564  0.77263  0.96105  1.0000
  H   H1        1.0  0.17809  0.10168  0.24651  1.0000
  H   H2        1.0  0.51142  0.43501  0.57985  1.0000
  H   H3        1.0  0.84476  0.76834  0.91318  1.0000
  H   H4        1.0  0.84246  0.20857  0.62518  1.0000
  H   H5        1.0  0.17580  0.54190  0.95852  1.0000
  H   H6        1.0  0.50913  0.87524  0.29185  1.0000
  H   H7        1.0  0.03559  0.00344  0.52484  1.0000
  H   H8        1.0  0.36892  0.33678  0.85817  1.0000
  H   H9        1.0  0.70226  0.67011  0.19150  1.0000
  H   H10       1.0  0.78527  0.73780  0.06266  1.0000
  H   H11       1.0  0.11860  0.07113  0.39600  1.0000
  H   H12       1.0  0.45193  0.40447  0.72933  1.0000
  F   F1        1.0  0.54007  0.10764  0.21660  1.0000
  F   F2        1.0  0.87341  0.44097  0.54994  1.0000
  F   F3        1.0  0.20674  0.77430  0.88327  1.0000
  F   F4        1.0  0.78678  0.07426  0.49633  1.0000
  F   F5        1.0  0.12011  0.40759  0.82966  1.0000
  F   F6        1.0  0.45345  0.74092  0.16299  1.0000
  F   F7        1.0  0.78091  0.89829  0.06231  1.0000
  F   F8        1.0  0.11424  0.23162  0.39564  1.0000
  F   F9        1.0  0.44758  0.56495  0.72898  1.0000
  F   F10       1.0  0.07500  0.85948  0.08574  1.0000
  F   F11       1.0  0.40833  0.19281  0.41907  1.0000
  F   F12       1.0  0.74167  0.52614  0.75240  1.0000
  H   H13       1.0  0.97584  0.23637  0.51975  1.0000
  H   H14       1.0  0.30918  0.56971  0.85309  1.0000
  H   H15       1.0  0.64251  0.90304  0.18642  1.0000
  H   H16       1.0  0.32752  0.10418  0.95340  1.0000
  H   H17       1.0  0.66086  0.43751  0.28674  1.0000
  H   H18       1.0  0.99419  0.77085  0.62007  1.0000
  H   H19       1.0  0.03195  0.60770  0.08235  1.0000
  H   H20       1.0  0.36529  0.94104  0.41569  1.0000
  H   H21       1.0  0.69862  0.27437  0.74902  1.0000
  H   H22       1.0  0.83416  0.50828  0.06657  1.0000
  H   H23       1.0  0.16749  0.84161  0.39990  1.0000
  H   H24       1.0  0.50082  0.17494  0.73324  1.0000
  F   F13       1.0  0.09119  0.13788  0.65333  1.0000
  F   F14       1.0  0.42453  0.47121  0.98666  1.0000
  F   F15       1.0  0.75786  0.80455  0.32000  1.0000
  H   H25       1.0  0.90203  0.97566  0.63008  1.0000
  H   H26       1.0  0.23537  0.30900  0.96341  1.0000
  H   H27       1.0  0.56870  0.64233  0.29674  1.0000
  H   H28       1.0  0.69980  0.11031  0.90330  1.0000
  H   H29       1.0  0.03313  0.44365  0.23663  1.0000
  H   H30       1.0  0.36647  0.77698  0.56996  1.0000
  F   F16       1.0  0.71010  0.11042  0.23020  1.0000
  F   F17       1.0  0.04343  0.44375  0.56353  1.0000
  F   F18       1.0  0.37677  0.77709  0.89687  1.0000
  H   H31       1.0  0.17809  0.10175  0.94146  1.0000
  H   H32       1.0  0.51142  0.43508  0.27479  1.0000
  H   H33       1.0  0.84476  0.76841  0.60813  1.0000
  F   F19       1.0  0.54006  0.10769  0.86951  1.0000
  F   F20       1.0  0.87339  0.44103  0.20285  1.0000
  F   F21       1.0  0.20673  0.77436  0.53618  1.0000
  H   H34       1.0  0.32753  0.10413  0.25846  1.0000
  H   H35       1.0  0.66087  0.43746  0.59180  1.0000
  H   H36       1.0  0.99420  0.77079  0.92513  1.0000
  H   H37       1.0  0.45292  0.10622  0.18440  1.0000
  H   H38       1.0  0.78625  0.43955  0.51774  1.0000
  H   H39       1.0  0.11959  0.77288  0.85107  1.0000
  H   H40       1.0  0.42497  0.10578  0.96541  1.0000
  H   H41       1.0  0.75830  0.43911  0.29874  1.0000
  H   H42       1.0  0.09163  0.77245  0.63208  1.0000
  H   H43       1.0  0.09263  0.47417  0.08716  1.0000
  H   H44       1.0  0.42596  0.80751  0.42050  1.0000
  H   H45       1.0  0.75930  0.14084  0.75383  1.0000
  F   F22       1.0  0.09698  0.31369  0.08751  1.0000
  F   F23       1.0  0.43032  0.64703  0.42085  1.0000
  F   F24       1.0  0.76365  0.98036  0.75418  1.0000
  F   F25       1.0  0.06067  0.69116  0.08461  1.0000
  F   F26       1.0  0.39401  0.02449  0.41795  1.0000
  F   F27       1.0  0.72734  0.35783  0.75128  1.0000
  H   H46       1.0  0.82157  0.36035  0.06555  1.0000
  H   H47       1.0  0.15490  0.69368  0.39888  1.0000
  H   H48       1.0  0.48824  0.02701  0.73221  1.0000
  F   F28       1.0  0.82726  0.59643  0.06601  1.0000
  F   F29       1.0  0.16059  0.92976  0.39935  1.0000
  F   F30       1.0  0.49393  0.26309  0.73268  1.0000
