data_image0
_chemical_formula_structural       O7Zn2OC4NC2ONCOC10NC11O2C4NC4H2CNHCNCNCNH6CNCNCNH3CN
_chemical_formula_sum              "O12 Zn2 C44 N12 H12"
_cell_length_a       11.0266
_cell_length_b       22.6101
_cell_length_c       11.0266
_cell_angle_alpha    89.9929
_cell_angle_beta     108.586
_cell_angle_gamma    90.0094

_space_group_name_H-M_alt    "P 1"
_space_group_IT_number       1

loop_
  _space_group_symop_operation_xyz
  'x, y, z'

loop_
  _atom_site_type_symbol
  _atom_site_label
  _atom_site_symmetry_multiplicity
  _atom_site_fract_x
  _atom_site_fract_y
  _atom_site_fract_z
  _atom_site_occupancy
  O   O1        1.0  0.72674  0.04918  0.53361  1.0000
  O   O2        1.0  0.36016  0.04918  0.47284  1.0000
  O   O3        1.0  0.51307  0.04918  0.31994  1.0000
  O   O4        1.0  0.57383  0.04919  0.68652  1.0000
  O   O5        1.0  0.51304  0.95081  0.31996  1.0000
  O   O6        1.0  0.36013  0.95082  0.47287  1.0000
  O   O7        1.0  0.72671  0.95081  0.53363  1.0000
  Zn  Zn1       1.0  0.54342  0.93520  0.50325  1.0000
  Zn  Zn2       1.0  0.54345  0.06480  0.50322  1.0000
  O   O8        1.0  0.57380  0.95082  0.68654  1.0000
  C   C1        1.0  0.31248  0.00000  0.46164  1.0000
  C   C2        1.0  0.17047  0.00000  0.42823  1.0000
  C   C3        1.0  0.11682  0.00000  0.52050  1.0000
  C   C4        1.0  0.97004  0.00000  0.48596  1.0000
  N   N1        1.0  0.54340  0.84674  0.50327  1.0000
  C   C5        1.0  0.61117  0.43810  0.43553  1.0000
  C   C6        1.0  0.61117  0.37618  0.43552  1.0000
  O   O9        1.0  0.66874  0.34416  0.37793  1.0000
  N   N2        1.0  0.54345  0.34521  0.50320  1.0000
  C   C7        1.0  0.47570  0.37616  0.57087  1.0000
  O   O10       1.0  0.41809  0.34412  0.62843  1.0000
  C   C8        1.0  0.47569  0.43807  0.57087  1.0000
  C   C9        1.0  0.54343  0.46905  0.50320  1.0000
  C   C10       1.0  0.67890  0.46907  0.36786  1.0000
  C   C11       1.0  0.67890  0.53099  0.36788  1.0000
  C   C12       1.0  0.61116  0.56193  0.43555  1.0000
  C   C13       1.0  0.54343  0.53096  0.50321  1.0000
  C   C14       1.0  0.40794  0.46902  0.63854  1.0000
  C   C15       1.0  0.40793  0.53094  0.63853  1.0000
  C   C16       1.0  0.47567  0.56192  0.57086  1.0000
  C   C17       1.0  0.47569  0.62382  0.57090  1.0000
  N   N3        1.0  0.54341  0.65480  0.50322  1.0000
  C   C18       1.0  0.61115  0.62385  0.43555  1.0000
  C   C19       1.0  0.47573  0.24612  0.57087  1.0000
  C   C20       1.0  0.47574  0.18420  0.57088  1.0000
  C   C21       1.0  0.61121  0.18423  0.43552  1.0000
  C   C22       1.0  0.61120  0.24615  0.43552  1.0000
  C   C23       1.0  0.54345  0.27710  0.50319  1.0000
  C   C24       1.0  0.61114  0.75388  0.43558  1.0000
  C   C25       1.0  0.61114  0.81580  0.43560  1.0000
  C   C26       1.0  0.47566  0.81576  0.57094  1.0000
  C   C27       1.0  0.47567  0.75385  0.57093  1.0000
  C   C28       1.0  0.54341  0.72291  0.50324  1.0000
  O   O11       1.0  0.41814  0.65588  0.62845  1.0000
  O   O12       1.0  0.66873  0.65589  0.37798  1.0000
  C   C29       1.0  0.77438  0.00000  0.54483  1.0000
  C   C30       1.0  0.91640  0.00000  0.57825  1.0000
  C   C31       1.0  0.50184  1.00000  0.27229  1.0000
  C   C32       1.0  0.46843  0.00000  0.13027  1.0000
  N   N4        1.0  0.54348  0.15325  0.50319  1.0000
  C   C33       1.0  0.56069  0.00000  0.07662  1.0000
  C   C34       1.0  0.52616  0.00000  0.92984  1.0000
  C   C35       1.0  0.58503  0.00000  0.73419  1.0000
  C   C36       1.0  0.61844  0.00000  0.87620  1.0000
  H   H1        1.0  0.10774  0.00001  0.32367  1.0000
  H   H2        1.0  0.36386  0.00000  0.06754  1.0000
  C   C37       1.0  0.40115  0.84981  0.64538  1.0000
  N   N5        1.0  0.34502  0.87546  0.70143  1.0000
  H   H3        1.0  0.66526  1.00000  0.13936  1.0000
  C   C38       1.0  0.00114  0.00001  0.71952  1.0000
  N   N6        1.0  0.06496  0.00001  0.82592  1.0000
  C   C39       1.0  0.38489  0.00000  0.84511  1.0000
  N   N7        1.0  0.27849  0.00000  0.78128  1.0000
  C   C40       1.0  0.88530  0.00000  0.34469  1.0000
  N   N8        1.0  0.82147  0.00000  0.23829  1.0000
  H   H4        1.0  0.66630  0.84102  0.38049  1.0000
  H   H5        1.0  0.66630  0.72869  0.38045  1.0000
  H   H6        1.0  0.73405  0.55620  0.31277  1.0000
  H   H7        1.0  0.17955  1.00000  0.62506  1.0000
  H   H8        1.0  0.73406  0.44388  0.31275  1.0000
  H   H9        1.0  0.66636  0.27137  0.38042  1.0000
  C   C41       1.0  0.68572  0.15018  0.36107  1.0000
  N   N9        1.0  0.74183  0.12453  0.30499  1.0000
  C   C42       1.0  0.40126  0.28015  0.64539  1.0000
  N   N10       1.0  0.34520  0.30578  0.70153  1.0000
  C   C43       1.0  0.40124  0.15014  0.64533  1.0000
  N   N11       1.0  0.34510  0.12449  0.70140  1.0000
  H   H10       1.0  0.35278  0.44381  0.69364  1.0000
  H   H11       1.0  0.72301  0.00005  0.93893  1.0000
  H   H12       1.0  0.42053  0.72863  0.62605  1.0000
  C   C44       1.0  0.33342  0.56498  0.71300  1.0000
  N   N12       1.0  0.27730  0.59061  0.76909  1.0000
