data_image0
_chemical_formula_structural       O7Cu2OC12N2C2H5C2H6C2H5
_chemical_formula_sum              "O8 Cu2 C18 N2 H16"
_cell_length_a       10.9089
_cell_length_b       11.7923
_cell_length_c       9.4829
_cell_angle_alpha    99.3989
_cell_angle_beta     83.0364
_cell_angle_gamma    72.1423

_space_group_name_H-M_alt    "P 1"
_space_group_IT_number       1

loop_
  _space_group_symop_operation_xyz
  'x, y, z'

loop_
  _atom_site_type_symbol
  _atom_site_label
  _atom_site_symmetry_multiplicity
  _atom_site_fract_x
  _atom_site_fract_y
  _atom_site_fract_z
  _atom_site_occupancy
  O   O1        1.0  0.72248  0.80342  0.87906  1.0000
  O   O2        1.0  0.34924  0.89193  0.87907  1.0000
  O   O3        1.0  0.54491  0.68075  0.87908  1.0000
  O   O4        1.0  0.52681  0.01460  0.87906  1.0000
  O   O5        1.0  0.50517  0.72379  0.12087  1.0000
  O   O6        1.0  0.30950  0.93497  0.12086  1.0000
  O   O7        1.0  0.68274  0.84646  0.12086  1.0000
  Cu  Cu1       1.0  0.49249  0.89465  0.14294  1.0000
  Cu  Cu2       1.0  0.53949  0.84375  0.85699  1.0000
  O   O8        1.0  0.48707  0.05764  0.12085  1.0000
  C   C1        1.0  0.28159  0.92172  0.99997  1.0000
  C   C2        1.0  0.13921  0.94636  0.99997  1.0000
  C   C3        1.0  0.94242  0.88192  0.99995  1.0000
  C   C4        1.0  0.08957  0.85646  0.99997  1.0000
  C   C5        1.0  0.52390  0.66020  0.99997  1.0000
  C   C6        1.0  0.52048  0.53485  0.99997  1.0000
  C   C7        1.0  0.51771  0.43305  0.99997  1.0000
  C   C8        1.0  0.51425  0.30534  0.99995  1.0000
  C   C9        1.0  0.75039  0.81667  0.99996  1.0000
  C   C10       1.0  0.89277  0.79204  0.99994  1.0000
  C   C11       1.0  0.50808  0.07819  0.99995  1.0000
  C   C12       1.0  0.51150  0.20354  0.99994  1.0000
  N   N1        1.0  0.45944  0.93044  0.34405  1.0000
  N   N2        1.0  0.57255  0.80794  0.65587  1.0000
  C   C13       1.0  0.52973  0.85430  0.41626  1.0000
  C   C14       1.0  0.50225  0.88409  0.58367  1.0000
  H   H1        1.0  0.95922  0.69623  0.99995  1.0000
  H   H2        1.0  0.87598  0.97772  0.99993  1.0000
  H   H3        1.0  0.65308  0.72069  0.59375  1.0000
  H   H4        1.0  0.15601  0.76065  0.99997  1.0000
  H   H5        1.0  0.37890  0.01768  0.40618  1.0000
  C   C15       1.0  0.92112  0.07589  0.99993  1.0000
  C   C16       1.0  0.04953  0.07570  0.99995  1.0000
  H   H6        1.0  0.86576  0.15574  0.99993  1.0000
  H   H7        1.0  0.91912  0.02103  0.91562  1.0000
  H   H8        1.0  0.89138  0.05104  0.08426  1.0000
  H   H9        1.0  0.07927  0.10053  0.91562  1.0000
  H   H10       1.0  0.05154  0.13057  0.08427  1.0000
  H   H11       1.0  0.61026  0.76706  0.35413  1.0000
  C   C17       1.0  0.27314  0.00130  0.63087  1.0000
  C   C18       1.0  0.39352  0.00187  0.66753  1.0000
  H   H12       1.0  0.20602  0.07400  0.68265  1.0000
  H   H13       1.0  0.27736  0.99673  0.52938  1.0000
  H   H14       1.0  0.25440  0.93277  0.65576  1.0000
  H   H15       1.0  0.41227  0.07039  0.64263  1.0000
  H   H16       1.0  0.38930  0.00644  0.76904  1.0000
