data_image0
_chemical_formula_structural       O14Cu4O2C36N4C8H2O2H6O2H4O2H6O2H2O2H4
_chemical_formula_sum              "O26 Cu4 C44 N4 H24"
_cell_length_a       14.5197
_cell_length_b       10.5405
_cell_length_c       12.9965
_cell_angle_alpha    89.996
_cell_angle_beta     90
_cell_angle_gamma    84.1028

_space_group_name_H-M_alt    "P 1"
_space_group_IT_number       1

loop_
  _space_group_symop_operation_xyz
  'x, y, z'

loop_
  _atom_site_type_symbol
  _atom_site_label
  _atom_site_symmetry_multiplicity
  _atom_site_fract_x
  _atom_site_fract_y
  _atom_site_fract_z
  _atom_site_occupancy
  O   O1        1.0  0.22477  0.16640  0.91457  1.0000
  O   O2        1.0  0.72476  0.66640  0.41457  1.0000
  O   O3        1.0  0.95639  0.18599  0.91454  1.0000
  O   O4        1.0  0.45639  0.68600  0.41454  1.0000
  O   O5        1.0  0.09670  0.99143  0.91456  1.0000
  O   O6        1.0  0.59670  0.49143  0.41456  1.0000
  O   O7        1.0  0.08446  0.36097  0.91456  1.0000
  O   O8        1.0  0.58446  0.86097  0.41456  1.0000
  O   O9        1.0  0.09669  0.99142  0.08569  1.0000
  O   O10       1.0  0.59669  0.49142  0.58569  1.0000
  O   O11       1.0  0.95638  0.18599  0.08568  1.0000
  O   O12       1.0  0.45638  0.68598  0.58567  1.0000
  O   O13       1.0  0.22475  0.16639  0.08571  1.0000
  O   O14       1.0  0.72475  0.66639  0.58571  1.0000
  Cu  Cu1       1.0  0.09056  0.17619  0.10132  1.0000
  Cu  Cu2       1.0  0.59056  0.67619  0.60132  1.0000
  Cu  Cu3       1.0  0.09058  0.17620  0.89893  1.0000
  Cu  Cu4       1.0  0.59058  0.67620  0.39893  1.0000
  O   O15       1.0  0.08444  0.36096  0.08569  1.0000
  O   O16       1.0  0.58444  0.86096  0.58569  1.0000
  C   C1        1.0  0.92202  0.18508  0.00010  1.0000
  C   C2        1.0  0.42202  0.68508  0.50010  1.0000
  C   C3        1.0  0.81963  0.18234  0.00009  1.0000
  C   C4        1.0  0.31963  0.68234  0.50009  1.0000
  C   C5        1.0  0.44468  0.17227  0.00014  1.0000
  C   C6        1.0  0.94468  0.67227  0.50014  1.0000
  C   C7        1.0  0.54900  0.17506  0.00013  1.0000
  C   C8        1.0  0.04900  0.67506  0.50013  1.0000
  C   C9        1.0  0.63215  0.17730  0.00012  1.0000
  C   C10       1.0  0.13215  0.67730  0.50011  1.0000
  C   C11       1.0  0.73648  0.18010  0.00010  1.0000
  C   C12       1.0  0.23648  0.68010  0.50010  1.0000
  C   C13       1.0  0.09578  0.94413  0.00012  1.0000
  C   C14       1.0  0.59578  0.44413  0.50012  1.0000
  C   C15       1.0  0.09303  0.80321  0.00012  1.0000
  C   C16       1.0  0.59303  0.30321  0.50012  1.0000
  C   C17       1.0  0.98775  0.62086  0.99972  1.0000
  C   C18       1.0  0.48775  0.12086  0.49972  1.0000
  C   C19       1.0  0.99053  0.76745  0.00011  1.0000
  C   C20       1.0  0.49053  0.26745  0.50011  1.0000
  C   C21       1.0  0.14235  0.74104  0.09785  1.0000
  C   C22       1.0  0.64235  0.24104  0.59785  1.0000
  C   C23       1.0  0.13885  0.59453  0.09793  1.0000
  C   C24       1.0  0.63885  0.09453  0.59793  1.0000
  C   C25       1.0  0.14095  0.59401  0.90332  1.0000
  C   C26       1.0  0.64095  0.09401  0.40332  1.0000
  C   C27       1.0  0.14189  0.74098  0.90203  1.0000
  C   C28       1.0  0.64189  0.24098  0.40203  1.0000
  C   C29       1.0  0.25912  0.16731  0.00014  1.0000
  C   C30       1.0  0.75912  0.66731  0.50014  1.0000
  C   C31       1.0  0.36152  0.17004  0.00015  1.0000
  C   C32       1.0  0.86152  0.67004  0.50015  1.0000
  C   C33       1.0  0.08537  0.40825  0.00012  1.0000
  C   C34       1.0  0.58537  0.90826  0.50012  1.0000
  C   C35       1.0  0.08812  0.54917  0.00012  1.0000
  C   C36       1.0  0.58811  0.04917  0.50012  1.0000
  N   N1        1.0  0.09056  0.17618  0.24366  1.0000
  N   N2        1.0  0.59056  0.67618  0.74366  1.0000
  N   N3        1.0  0.09059  0.17620  0.75658  1.0000
  N   N4        1.0  0.59059  0.67620  0.25658  1.0000
  C   C37       1.0  0.09058  0.17620  0.66348  1.0000
  C   C38       1.0  0.59058  0.67620  0.16348  1.0000
  C   C39       1.0  0.09057  0.17620  0.54667  1.0000
  C   C40       1.0  0.59057  0.67620  0.04667  1.0000
  C   C41       1.0  0.09057  0.17619  0.45357  1.0000
  C   C42       1.0  0.59057  0.67619  0.95357  1.0000
  C   C43       1.0  0.09056  0.17619  0.33676  1.0000
  C   C44       1.0  0.59056  0.67619  0.83676  1.0000
  H   H1        1.0  0.94727  0.59268  0.92964  1.0000
  H   H2        1.0  0.44727  0.09267  0.42964  1.0000
  O   O17       1.0  0.23648  0.52998  0.10384  1.0000
  O   O18       1.0  0.73648  0.02998  0.60384  1.0000
  H   H3        1.0  0.28598  0.60345  0.10663  1.0000
  H   H4        1.0  0.78598  0.10345  0.60664  1.0000
  H   H5        1.0  0.21498  0.54602  0.90267  1.0000
  H   H6        1.0  0.71498  0.04603  0.40267  1.0000
  H   H7        1.0  0.10581  0.78221  0.82973  1.0000
  H   H8        1.0  0.60581  0.28221  0.32973  1.0000
  O   O19       1.0  0.93433  0.58139  0.09203  1.0000
  O   O20       1.0  0.43433  0.08139  0.59203  1.0000
  H   H9        1.0  0.86359  0.63254  0.09100  1.0000
  H   H10       1.0  0.36359  0.13253  0.59100  1.0000
  H   H11       1.0  0.95144  0.80960  0.07027  1.0000
  H   H12       1.0  0.45145  0.30960  0.57027  1.0000
  O   O21       1.0  0.24205  0.76964  0.10269  1.0000
  O   O22       1.0  0.74205  0.26964  0.60269  1.0000
  H   H13       1.0  0.25754  0.82861  0.03534  1.0000
  H   H14       1.0  0.75754  0.32861  0.53534  1.0000
  H   H15       1.0  0.10239  0.56670  0.17098  1.0000
  H   H16       1.0  0.60239  0.06670  0.67098  1.0000
  H   H17       1.0  0.10808  0.78399  0.17057  1.0000
  H   H18       1.0  0.60808  0.28399  0.67057  1.0000
  O   O23       1.0  0.09702  0.55268  0.80519  1.0000
  O   O24       1.0  0.59702  0.05268  0.30519  1.0000
  H   H19       1.0  0.03703  0.49972  0.82433  1.0000
  H   H20       1.0  0.53703  0.99972  0.32433  1.0000
  O   O25       1.0  0.24088  0.77204  0.89421  1.0000
  O   O26       1.0  0.74088  0.27204  0.39421  1.0000
  H   H21       1.0  0.27987  0.73522  0.96329  1.0000
  H   H22       1.0  0.77987  0.23522  0.46329  1.0000
  H   H23       1.0  0.95173  0.81045  0.93005  1.0000
  H   H24       1.0  0.45173  0.31045  0.43005  1.0000
