data_image0
_chemical_formula_structural       O7Cu2OC2NC14NH2OCH4OCH4O7Cu2OC2NC14NH2OCH4OCH4
_chemical_formula_sum              "O20 Cu4 C36 N4 H20"
_cell_length_a       10.6546
_cell_length_b       9.06522
_cell_length_c       15.0807
_cell_angle_alpha    90.0018
_cell_angle_beta     89.9935
_cell_angle_gamma    95.2496

_space_group_name_H-M_alt    "P 1"
_space_group_IT_number       1

loop_
  _space_group_symop_operation_xyz
  'x, y, z'

loop_
  _atom_site_type_symbol
  _atom_site_label
  _atom_site_symmetry_multiplicity
  _atom_site_fract_x
  _atom_site_fract_y
  _atom_site_fract_z
  _atom_site_occupancy
  O   O1        1.0  0.66866  0.79277  0.42619  1.0000
  O   O2        1.0  0.30326  0.77302  0.42620  1.0000
  O   O3        1.0  0.49351  0.99758  0.42620  1.0000
  O   O4        1.0  0.47841  0.56821  0.42620  1.0000
  O   O5        1.0  0.49350  0.99758  0.07368  1.0000
  O   O6        1.0  0.30325  0.77303  0.07369  1.0000
  O   O7        1.0  0.66865  0.79277  0.07367  1.0000
  Cu  Cu1       1.0  0.48595  0.78290  0.08715  1.0000
  Cu  Cu2       1.0  0.48596  0.78290  0.41273  1.0000
  O   O8        1.0  0.47839  0.56821  0.07368  1.0000
  C   C1        1.0  0.25645  0.77448  0.49995  1.0000
  C   C2        1.0  0.11699  0.77881  0.49995  1.0000
  N   N1        1.0  0.48595  0.78290  0.20982  1.0000
  C   C3        1.0  0.49206  0.05256  0.49994  1.0000
  C   C4        1.0  0.48771  0.21638  0.49993  1.0000
  C   C5        1.0  0.03803  0.64660  0.49994  1.0000
  C   C6        1.0  0.90699  0.65068  0.49992  1.0000
  C   C7        1.0  0.93389  0.91921  0.49993  1.0000
  C   C8        1.0  0.06492  0.91512  0.49995  1.0000
  C   C9        1.0  0.09009  0.51029  0.49994  1.0000
  C   C10       1.0  0.01113  0.37806  0.49992  1.0000
  C   C11       1.0  0.88009  0.38215  0.49991  1.0000
  C   C12       1.0  0.82802  0.51846  0.49991  1.0000
  C   C13       1.0  0.71546  0.79132  0.49993  1.0000
  C   C14       1.0  0.85492  0.78698  0.49992  1.0000
  C   C15       1.0  0.47985  0.51323  0.49994  1.0000
  C   C16       1.0  0.48419  0.34942  0.49993  1.0000
  N   N2        1.0  0.48597  0.78290  0.29006  1.0000
  H   H1        1.0  0.19679  0.50695  0.49995  1.0000
  H   H2        1.0  0.72132  0.52177  0.49991  1.0000
  O   O9        1.0  0.06177  0.24569  0.49977  1.0000
  C   C17       1.0  0.13681  0.23531  0.42340  1.0000
  H   H3        1.0  0.10498  0.31274  0.37002  1.0000
  H   H4        1.0  0.12641  0.11652  0.39776  1.0000
  H   H5        1.0  0.23973  0.26828  0.44068  1.0000
  H   H6        1.0  0.89148  0.03018  0.49992  1.0000
  O   O10       1.0  0.80344  0.25367  0.49974  1.0000
  C   C18       1.0  0.82734  0.17099  0.42337  1.0000
  H   H7        1.0  0.87125  0.24843  0.36999  1.0000
  H   H8        1.0  0.73508  0.11277  0.39771  1.0000
  H   H9        1.0  0.89501  0.08490  0.44064  1.0000
  H   H10       1.0  0.12922  0.02278  0.49996  1.0000
  O   O11       1.0  0.66866  0.79277  0.92619  1.0000
  O   O12       1.0  0.30326  0.77302  0.92620  1.0000
  O   O13       1.0  0.49351  0.99758  0.92620  1.0000
  O   O14       1.0  0.47841  0.56821  0.92620  1.0000
  O   O15       1.0  0.49350  0.99758  0.57368  1.0000
  O   O16       1.0  0.30325  0.77303  0.57369  1.0000
  O   O17       1.0  0.66865  0.79277  0.57367  1.0000
  Cu  Cu3       1.0  0.48595  0.78290  0.58715  1.0000
  Cu  Cu4       1.0  0.48596  0.78290  0.91273  1.0000
  O   O18       1.0  0.47839  0.56821  0.57368  1.0000
  C   C19       1.0  0.25645  0.77448  0.99995  1.0000
  C   C20       1.0  0.11699  0.77881  0.99995  1.0000
  N   N3        1.0  0.48595  0.78290  0.70982  1.0000
  C   C21       1.0  0.49206  0.05256  0.99994  1.0000
  C   C22       1.0  0.48771  0.21638  0.99993  1.0000
  C   C23       1.0  0.03803  0.64660  0.99994  1.0000
  C   C24       1.0  0.90699  0.65068  0.99992  1.0000
  C   C25       1.0  0.93389  0.91921  0.99993  1.0000
  C   C26       1.0  0.06492  0.91512  0.99995  1.0000
  C   C27       1.0  0.09009  0.51029  0.99994  1.0000
  C   C28       1.0  0.01113  0.37806  0.99992  1.0000
  C   C29       1.0  0.88009  0.38215  0.99991  1.0000
  C   C30       1.0  0.82802  0.51846  0.99991  1.0000
  C   C31       1.0  0.71546  0.79132  0.99993  1.0000
  C   C32       1.0  0.85492  0.78698  0.99992  1.0000
  C   C33       1.0  0.47985  0.51323  0.99994  1.0000
  C   C34       1.0  0.48419  0.34942  0.99993  1.0000
  N   N4        1.0  0.48597  0.78290  0.79006  1.0000
  H   H11       1.0  0.19679  0.50695  0.99995  1.0000
  H   H12       1.0  0.72132  0.52177  0.99991  1.0000
  O   O19       1.0  0.06177  0.24569  0.99977  1.0000
  C   C35       1.0  0.13681  0.23531  0.92340  1.0000
  H   H13       1.0  0.10498  0.31274  0.87002  1.0000
  H   H14       1.0  0.12641  0.11652  0.89776  1.0000
  H   H15       1.0  0.23973  0.26828  0.94069  1.0000
  H   H16       1.0  0.89148  0.03018  0.99992  1.0000
  O   O20       1.0  0.80344  0.25367  0.99974  1.0000
  C   C36       1.0  0.82734  0.17099  0.92337  1.0000
  H   H17       1.0  0.87125  0.24843  0.86999  1.0000
  H   H18       1.0  0.73508  0.11277  0.89771  1.0000
  H   H19       1.0  0.89501  0.08490  0.94064  1.0000
  H   H20       1.0  0.12922  0.02278  0.99996  1.0000
