data_image0
_chemical_formula_structural       O7Cu2OC32N2C2H3F2H3F2HF5HF2H
_chemical_formula_sum              "O8 Cu2 C34 N2 H9 F11"
_cell_length_a       17.0193
_cell_length_b       17.0383
_cell_length_c       10.2684
_cell_angle_alpha    89.9945
_cell_angle_beta     86.1157
_cell_angle_gamma    87.2454

_space_group_name_H-M_alt    "P 1"
_space_group_IT_number       1

loop_
  _space_group_symop_operation_xyz
  'x, y, z'

loop_
  _atom_site_type_symbol
  _atom_site_label
  _atom_site_symmetry_multiplicity
  _atom_site_fract_x
  _atom_site_fract_y
  _atom_site_fract_z
  _atom_site_occupancy
  O   O1        1.0  0.05336  0.09963  0.77357  1.0000
  O   O2        1.0  0.82455  0.11233  0.79922  1.0000
  O   O3        1.0  0.93760  0.99217  0.78656  1.0000
  O   O4        1.0  0.94032  0.21979  0.78623  1.0000
  O   O5        1.0  0.93759  0.99216  0.00316  1.0000
  O   O6        1.0  0.82454  0.11232  0.01583  1.0000
  O   O7        1.0  0.05335  0.09963  0.99017  1.0000
  Cu  Cu1       1.0  0.93895  0.10597  0.02278  1.0000
  Cu  Cu2       1.0  0.93896  0.10598  0.76662  1.0000
  O   O8        1.0  0.94031  0.21979  0.00283  1.0000
  C   C1        1.0  0.79512  0.11184  0.91083  1.0000
  C   C2        1.0  0.70746  0.11039  0.92066  1.0000
  C   C3        1.0  0.21163  0.10224  0.98218  1.0000
  C   C4        1.0  0.29400  0.10360  0.97294  1.0000
  C   C5        1.0  0.33519  0.10427  0.85025  1.0000
  C   C6        1.0  0.29401  0.10360  0.73679  1.0000
  C   C7        1.0  0.21164  0.10224  0.74603  1.0000
  C   C8        1.0  0.58390  0.10837  0.81644  1.0000
  C   C9        1.0  0.66628  0.10972  0.80720  1.0000
  C   C10       1.0  0.66626  0.10972  0.04336  1.0000
  C   C11       1.0  0.58389  0.10836  0.05259  1.0000
  C   C12       1.0  0.54271  0.10769  0.93913  1.0000
  C   C13       1.0  0.41939  0.10566  0.84080  1.0000
  C   C14       1.0  0.45852  0.10631  0.94858  1.0000
  C   C15       1.0  0.93512  0.96304  0.89514  1.0000
  C   C16       1.0  0.92774  0.87625  0.89596  1.0000
  C   C17       1.0  0.99550  0.82608  0.88837  1.0000
  C   C18       1.0  0.98856  0.74453  0.88913  1.0000
  C   C19       1.0  0.91386  0.71316  0.89751  1.0000
  C   C20       1.0  0.84609  0.76334  0.90510  1.0000
  C   C21       1.0  0.85303  0.84488  0.90432  1.0000
  C   C22       1.0  0.88934  0.46742  0.90024  1.0000
  C   C23       1.0  0.88241  0.38587  0.90102  1.0000
  C   C24       1.0  0.02487  0.36708  0.88505  1.0000
  C   C25       1.0  0.03181  0.44862  0.88428  1.0000
  C   C26       1.0  0.96404  0.49879  0.89187  1.0000
  C   C27       1.0  0.90676  0.62981  0.89829  1.0000
  C   C28       1.0  0.97114  0.58214  0.89107  1.0000
  C   C29       1.0  0.08278  0.10011  0.87857  1.0000
  C   C30       1.0  0.17045  0.10156  0.86873  1.0000
  C   C31       1.0  0.94279  0.24892  0.89425  1.0000
  C   C32       1.0  0.95017  0.33570  0.89342  1.0000
  N   N1        1.0  0.93894  0.10597  0.20294  1.0000
  N   N2        1.0  0.93897  0.10598  0.58645  1.0000
  C   C33       1.0  0.93895  0.10598  0.46861  1.0000
  C   C34       1.0  0.93895  0.10598  0.32077  1.0000
  H   H1        1.0  0.32755  0.10415  0.63689  1.0000
  H   H2        1.0  0.04374  0.70369  0.88295  1.0000
  H   H3        1.0  0.17811  0.10169  0.65364  1.0000
  F   F1        1.0  0.46324  0.10637  0.71022  1.0000
  F   F2        1.0  0.41467  0.10559  0.07915  1.0000
  H   H4        1.0  0.09264  0.47416  0.87746  1.0000
  H   H5        1.0  0.08004  0.32622  0.87887  1.0000
  H   H6        1.0  0.82157  0.36033  0.90785  1.0000
  F   F3        1.0  0.81722  0.52081  0.90831  1.0000
  F   F4        1.0  0.05064  0.61553  0.88215  1.0000
  H   H7        1.0  0.78527  0.73779  0.91191  1.0000
  F   F5        1.0  0.33782  0.10432  0.09369  1.0000
  F   F6        1.0  0.54009  0.10765  0.69568  1.0000
  F   F7        1.0  0.07501  0.85946  0.87947  1.0000
  F   F8        1.0  0.82727  0.59641  0.90720  1.0000
  F   F9        1.0  0.78091  0.89828  0.91241  1.0000
  H   H8        1.0  0.55036  0.10779  0.15250  1.0000
  F   F10       1.0  0.71010  0.11044  0.16410  1.0000
  F   F11       1.0  0.16779  0.10151  0.11276  1.0000
  H   H9        1.0  0.69981  0.11027  0.70729  1.0000
