data_image0
_chemical_formula_structural       O7Zn2OC20N2C4N2C6HOH5OH2OH2OHOHOHOHOHOHOH4
_chemical_formula_sum              "O18 Zn2 C30 N4 H20"
_cell_length_a       10.6546
_cell_length_b       16.9927
_cell_length_c       9.73022
_cell_angle_alpha    89.9982
_cell_angle_beta     89.9963
_cell_angle_gamma    87.5766

_space_group_name_H-M_alt    "P 1"
_space_group_IT_number       1

loop_
  _space_group_symop_operation_xyz
  'x, y, z'

loop_
  _atom_site_type_symbol
  _atom_site_label
  _atom_site_symmetry_multiplicity
  _atom_site_fract_x
  _atom_site_fract_y
  _atom_site_fract_z
  _atom_site_occupancy
  O   O1        1.0  0.67736  0.11019  0.88560  1.0000
  O   O2        1.0  0.31279  0.12069  0.88562  1.0000
  O   O3        1.0  0.49361  0.00128  0.88562  1.0000
  O   O4        1.0  0.49653  0.22959  0.88560  1.0000
  O   O5        1.0  0.49361  0.00129  0.11420  1.0000
  O   O6        1.0  0.31278  0.12069  0.11420  1.0000
  O   O7        1.0  0.67735  0.11019  0.11417  1.0000
  Zn  Zn1       1.0  0.49507  0.11544  0.15048  1.0000
  Zn  Zn2       1.0  0.49507  0.11543  0.84931  1.0000
  O   O8        1.0  0.49653  0.22959  0.11417  1.0000
  C   C1        1.0  0.26592  0.11991  0.99991  1.0000
  C   C2        1.0  0.12628  0.11761  0.99992  1.0000
  C   C3        1.0  0.05287  0.18791  0.99989  1.0000
  C   C4        1.0  0.92166  0.18574  0.99987  1.0000
  C   C5        1.0  0.93728  0.04296  0.99989  1.0000
  C   C6        1.0  0.06849  0.04513  0.99992  1.0000
  C   C7        1.0  0.04384  0.27034  0.99987  1.0000
  C   C8        1.0  0.91264  0.26817  0.99985  1.0000
  C   C9        1.0  0.48985  0.97205  0.99991  1.0000
  C   C10       1.0  0.47863  0.88495  0.99991  1.0000
  C   C11       1.0  0.58688  0.83530  0.99990  1.0000
  C   C12       1.0  0.57633  0.75345  0.99989  1.0000
  C   C13       1.0  0.45753  0.72126  0.99989  1.0000
  C   C14       1.0  0.34927  0.77092  0.99989  1.0000
  C   C15       1.0  0.35982  0.85276  0.99989  1.0000
  C   C16       1.0  0.41380  0.47743  0.99988  1.0000
  C   C17       1.0  0.40326  0.39558  0.99988  1.0000
  C   C18       1.0  0.63032  0.37812  0.99987  1.0000
  C   C19       1.0  0.64086  0.45996  0.99988  1.0000
  C   C20       1.0  0.53260  0.50961  0.99988  1.0000
  N   N1        1.0  0.44674  0.63760  0.99988  1.0000
  N   N2        1.0  0.54339  0.59327  0.99987  1.0000
  C   C21       1.0  0.72422  0.11096  0.99988  1.0000
  C   C22       1.0  0.86386  0.11327  0.99986  1.0000
  C   C23       1.0  0.50029  0.25882  0.99988  1.0000
  C   C24       1.0  0.51151  0.34593  0.99987  1.0000
  N   N3        1.0  0.49508  0.11544  0.35601  1.0000
  N   N4        1.0  0.49507  0.11543  0.64378  1.0000
  C   C25       1.0  0.57517  0.06259  0.42794  1.0000
  C   C26       1.0  0.57516  0.06258  0.57182  1.0000
  C   C27       1.0  0.41497  0.16828  0.57184  1.0000
  C   C28       1.0  0.41497  0.16829  0.42796  1.0000
  C   C29       1.0  0.66766  0.00156  0.42793  1.0000
  C   C30       1.0  0.66765  0.00156  0.57181  1.0000
  H   H1        1.0  0.68362  0.86150  0.99991  1.0000
  O   O9        1.0  0.79063  0.02686  0.36879  1.0000
  H   H2        1.0  0.85583  0.04026  0.45379  1.0000
  H   H3        1.0  0.63222  0.94457  0.61644  1.0000
  H   H4        1.0  0.34975  0.21131  0.63044  1.0000
  H   H5        1.0  0.71846  0.33768  0.99987  1.0000
  H   H6        1.0  0.27167  0.89319  0.99990  1.0000
  O   O10       1.0  0.14767  0.96931  0.99997  1.0000
  H   H7        1.0  0.20778  0.96689  0.09316  1.0000
  H   H8        1.0  0.86912  0.29308  0.09853  1.0000
  O   O11       1.0  0.09410  0.30511  0.86915  1.0000
  H   H9        1.0  0.14694  0.35815  0.89427  1.0000
  H   H10       1.0  0.64100  0.94127  0.38888  1.0000
  O   O12       1.0  0.69309  0.69990  0.99991  1.0000
  H   H11       1.0  0.77747  0.73603  0.99993  1.0000
  O   O13       1.0  0.27512  0.36085  0.99989  1.0000
  H   H12       1.0  0.26489  0.32397  0.90674  1.0000
  O   O14       1.0  0.87496  0.96479  0.99989  1.0000
  H   H13       1.0  0.77139  0.97509  0.99986  1.0000
  O   O15       1.0  0.79702  0.01937  0.62356  1.0000
  H   H14       1.0  0.86610  0.97374  0.58548  1.0000
  O   O16       1.0  0.76900  0.49467  0.99985  1.0000
  H   H15       1.0  0.82143  0.47477  0.09300  1.0000
  O   O17       1.0  0.08641  0.31298  0.12665  1.0000
  H   H16       1.0  0.00320  0.33213  0.18869  1.0000
  O   O18       1.0  0.22114  0.73620  0.99989  1.0000
  H   H17       1.0  0.14763  0.78448  0.99988  1.0000
  H   H18       1.0  0.34974  0.21132  0.36940  1.0000
  H   H19       1.0  0.87359  0.29923  0.90418  1.0000
  H   H20       1.0  0.32565  0.51784  0.99987  1.0000
