data_image0
_chemical_formula_structural       O7Zn2OC18NC14NC12H5NH2NH4NH2NH2NH2NH4NH2NH4NH4NH2NH2
_chemical_formula_sum              "O8 Zn2 C44 N13 H35"
_cell_length_a       13.2624
_cell_length_b       13.3391
_cell_length_c       12.377
_cell_angle_alpha    99.0226
_cell_angle_beta     61.851
_cell_angle_gamma    80.566

_space_group_name_H-M_alt    "P 1"
_space_group_IT_number       1

loop_
  _space_group_symop_operation_xyz
  'x, y, z'

loop_
  _atom_site_type_symbol
  _atom_site_label
  _atom_site_symmetry_multiplicity
  _atom_site_fract_x
  _atom_site_fract_y
  _atom_site_fract_z
  _atom_site_occupancy
  O   O1        1.0  0.52401  0.79406  0.62546  1.0000
  O   O2        1.0  0.19825  0.79781  0.72562  1.0000
  O   O3        1.0  0.32375  0.94547  0.68701  1.0000
  O   O4        1.0  0.39851  0.64640  0.66407  1.0000
  O   O5        1.0  0.37347  0.90777  0.48374  1.0000
  O   O6        1.0  0.24796  0.76011  0.52235  1.0000
  O   O7        1.0  0.57373  0.75635  0.42219  1.0000
  Zn  Zn1       1.0  0.41874  0.75224  0.43999  1.0000
  Zn  Zn2       1.0  0.35324  0.80192  0.70782  1.0000
  O   O8        1.0  0.44823  0.60869  0.46080  1.0000
  C   C1        1.0  0.18056  0.78222  0.63706  1.0000
  C   C2        1.0  0.05378  0.79194  0.67604  1.0000
  C   C3        1.0  0.96712  0.81707  0.80516  1.0000
  C   C4        1.0  0.84801  0.82619  0.84178  1.0000
  C   C5        1.0  0.81555  0.81020  0.74928  1.0000
  C   C6        1.0  0.90221  0.78508  0.62016  1.0000
  C   C7        1.0  0.02134  0.77595  0.58354  1.0000
  C   C8        1.0  0.86976  0.76908  0.52766  1.0000
  C   C9        1.0  0.95642  0.74397  0.39854  1.0000
  C   C10       1.0  0.07554  0.73484  0.36192  1.0000
  C   C11       1.0  0.10800  0.75082  0.45442  1.0000
  C   C12       1.0  0.75064  0.77822  0.56428  1.0000
  C   C13       1.0  0.80485  0.73710  0.34266  1.0000
  C   C14       1.0  0.92396  0.72798  0.30604  1.0000
  C   C15       1.0  0.33598  0.96508  0.58925  1.0000
  C   C16       1.0  0.29833  0.07967  0.60081  1.0000
  C   C17       1.0  0.59142  0.77195  0.51075  1.0000
  C   C18       1.0  0.71819  0.76223  0.47178  1.0000
  N   N1        1.0  0.46345  0.71834  0.25721  1.0000
  C   C19       1.0  0.59109  0.42661  0.51075  1.0000
  C   C20       1.0  0.62646  0.31894  0.49988  1.0000
  C   C21       1.0  0.54443  0.25912  0.52511  1.0000
  C   C22       1.0  0.42702  0.30697  0.56122  1.0000
  C   C23       1.0  0.39165  0.41465  0.57208  1.0000
  C   C24       1.0  0.34499  0.24716  0.58644  1.0000
  C   C25       1.0  0.22758  0.29502  0.62255  1.0000
  C   C26       1.0  0.19221  0.40268  0.63341  1.0000
  C   C27       1.0  0.27424  0.46251  0.60817  1.0000
  C   C28       1.0  0.38037  0.13948  0.57558  1.0000
  C   C29       1.0  0.18093  0.12753  0.63691  1.0000
  C   C30       1.0  0.14555  0.23519  0.64778  1.0000
  C   C31       1.0  0.43601  0.58908  0.55852  1.0000
  C   C32       1.0  0.47368  0.47446  0.54685  1.0000
  N   N2        1.0  0.30853  0.83583  0.89060  1.0000
  C   C33       1.0  0.56726  0.63957  0.16616  1.0000
  C   C34       1.0  0.59857  0.61581  0.03821  1.0000
  C   C35       1.0  0.52606  0.67081  0.00130  1.0000
  C   C36       1.0  0.42224  0.74958  0.09235  1.0000
  C   C37       1.0  0.39094  0.77335  0.22031  1.0000
  C   C38       1.0  0.34974  0.80459  0.05545  1.0000
  C   C39       1.0  0.24592  0.88336  0.14651  1.0000
  C   C40       1.0  0.21462  0.90712  0.27446  1.0000
  C   C41       1.0  0.28713  0.85212  0.31136  1.0000
  C   C42       1.0  0.38104  0.78083  0.92749  1.0000
  C   C43       1.0  0.20472  0.91461  0.98165  1.0000
  C   C44       1.0  0.17342  0.93836  0.10960  1.0000
  H   H1        1.0  0.99454  0.70752  0.20091  1.0000
  H   H2        1.0  0.09661  0.44164  0.66280  1.0000
  H   H3        1.0  0.04995  0.27417  0.67718  1.0000
  H   H4        1.0  0.14610  0.71437  0.25678  1.0000
  H   H5        1.0  0.11413  0.07882  0.65745  1.0000
  N   N3        1.0  0.06145  0.02332  0.20780  1.0000
  H   H6        1.0  0.05263  0.03003  0.29446  1.0000
  H   H7        1.0  0.06636  0.09274  0.18558  1.0000
  N   N4        1.0  0.68708  0.82006  0.78877  1.0000
  H   H8        1.0  0.67957  0.75088  0.75086  1.0000
  H   H9        1.0  0.63718  0.83844  0.88461  1.0000
  H   H10       1.0  0.68310  0.55168  0.96408  1.0000
  H   H11       1.0  0.46557  0.71669  0.85337  1.0000
  N   N5        1.0  0.00213  0.83431  0.90492  1.0000
  H   H12       1.0  0.98010  0.78158  0.95650  1.0000
  H   H13       1.0  0.09074  0.82473  0.86203  1.0000
  N   N6        1.0  0.75454  0.85328  0.98103  1.0000
  H   H14       1.0  0.79318  0.86203  0.03408  1.0000
  H   H15       1.0  0.69340  0.92128  0.00428  1.0000
  N   N7        1.0  0.23646  0.74101  0.41494  1.0000
  H   H16       1.0  0.26507  0.68358  0.44640  1.0000
  H   H17       1.0  0.28636  0.72271  0.31911  1.0000
  N   N8        1.0  0.55982  0.64519  0.86330  1.0000
  H   H18       1.0  0.63659  0.58695  0.81122  1.0000
  H   H19       1.0  0.49476  0.62142  0.85490  1.0000
  H   H20       1.0  0.62629  0.59480  0.19622  1.0000
  H   H21       1.0  0.24544  0.55018  0.61703  1.0000
  N   N9        1.0  0.58258  0.14300  0.51341  1.0000
  H   H22       1.0  0.57037  0.10073  0.44749  1.0000
  H   H23       1.0  0.66939  0.12185  0.48676  1.0000
  N   N10       1.0  0.76986  0.71985  0.24288  1.0000
  H   H24       1.0  0.68150  0.72801  0.28560  1.0000
  H   H25       1.0  0.79046  0.77352  0.19247  1.0000
  H   H26       1.0  0.47596  0.10053  0.54618  1.0000
  H   H27       1.0  0.13010  0.97127  0.34859  1.0000
  N   N11       1.0  0.75309  0.26733  0.46093  1.0000
  H   H28       1.0  0.79969  0.32156  0.44660  1.0000
  H   H29       1.0  0.75369  0.23689  0.53044  1.0000
  H   H30       1.0  0.26164  0.87145  0.41555  1.0000
  H   H31       1.0  0.14568  0.95939  0.95160  1.0000
  N   N12       1.0  0.67955  0.49114  0.48352  1.0000
  H   H32       1.0  0.65089  0.55006  0.56201  1.0000
  H   H33       1.0  0.75927  0.44441  0.45897  1.0000
  N   N13       1.0  0.65718  0.80532  0.70354  1.0000
  H   H34       1.0  0.59601  0.87334  0.72691  1.0000
  H   H35       1.0  0.61719  0.74666  0.72036  1.0000
