data_image0
_chemical_formula_structural       O7Zn2OC8ONCOC10NC11O2C4N2C2HClH2Cl3HClHClHClH3ClHClH
_chemical_formula_sum              "O12 Zn2 C36 N4 H11 Cl9"
_cell_length_a       11.0266
_cell_length_b       23.5324
_cell_length_c       10.0659
_cell_angle_alpha    98.7291
_cell_angle_beta     79.3023
_cell_angle_gamma    95.7173

_space_group_name_H-M_alt    "P 1"
_space_group_IT_number       1

loop_
  _space_group_symop_operation_xyz
  'x, y, z'

loop_
  _atom_site_type_symbol
  _atom_site_label
  _atom_site_symmetry_multiplicity
  _atom_site_fract_x
  _atom_site_fract_y
  _atom_site_fract_z
  _atom_site_occupancy
  O   O1        1.0  0.62513  0.23164  0.88645  1.0000
  O   O2        1.0  0.27215  0.20452  0.88646  1.0000
  O   O3        1.0  0.45928  0.13627  0.88648  1.0000
  O   O4        1.0  0.43800  0.29989  0.88643  1.0000
  O   O5        1.0  0.42360  0.14935  0.11346  1.0000
  O   O6        1.0  0.23647  0.21760  0.11344  1.0000
  O   O7        1.0  0.58945  0.24472  0.11344  1.0000
  Zn  Zn1       1.0  0.40729  0.23324  0.14948  1.0000
  Zn  Zn2       1.0  0.45431  0.21600  0.85042  1.0000
  O   O8        1.0  0.40232  0.31297  0.11342  1.0000
  C   C1        1.0  0.20916  0.20605  0.99995  1.0000
  C   C2        1.0  0.07463  0.19114  0.99995  1.0000
  C   C3        1.0  0.00033  0.23232  0.99994  1.0000
  C   C4        1.0  0.86128  0.21691  0.99994  1.0000
  C   C5        1.0  0.44090  0.12154  0.99998  1.0000
  C   C6        1.0  0.43927  0.05815  0.99999  1.0000
  C   C7        1.0  0.53980  0.66961  0.99991  1.0000
  C   C8        1.0  0.53829  0.61005  0.99990  1.0000
  O   O9        1.0  0.63148  0.58310  0.99985  1.0000
  N   N1        1.0  0.42704  0.57573  0.99990  1.0000
  C   C9        1.0  0.31729  0.60096  0.99990  1.0000
  O   O10       1.0  0.22253  0.56629  0.99990  1.0000
  C   C10       1.0  0.31881  0.66052  0.99990  1.0000
  C   C11       1.0  0.43006  0.69484  0.99991  1.0000
  C   C12       1.0  0.65105  0.70394  0.99992  1.0000
  C   C13       1.0  0.65256  0.76349  0.99993  1.0000
  C   C14       1.0  0.54282  0.78872  0.99994  1.0000
  C   C15       1.0  0.43158  0.75440  0.99993  1.0000
  C   C16       1.0  0.20907  0.68575  0.99989  1.0000
  C   C17       1.0  0.21059  0.74531  0.99989  1.0000
  C   C18       1.0  0.32185  0.77964  0.99990  1.0000
  C   C19       1.0  0.32335  0.83919  0.99994  1.0000
  N   N2        1.0  0.43460  0.87351  0.99994  1.0000
  C   C20       1.0  0.54434  0.84828  0.99994  1.0000
  C   C21       1.0  0.31412  0.47588  0.99990  1.0000
  C   C22       1.0  0.31260  0.41633  0.99991  1.0000
  C   C23       1.0  0.53360  0.42542  0.99990  1.0000
  C   C24       1.0  0.53511  0.48498  0.99990  1.0000
  C   C25       1.0  0.42537  0.51021  0.99989  1.0000
  C   C26       1.0  0.54750  0.97336  0.99996  1.0000
  C   C27       1.0  0.54901  0.03292  0.99998  1.0000
  C   C28       1.0  0.32801  0.02381  0.99998  1.0000
  C   C29       1.0  0.32651  0.96426  0.99997  1.0000
  C   C30       1.0  0.43626  0.93903  0.99996  1.0000
  O   O11       1.0  0.23021  0.86617  0.99999  1.0000
  O   O12       1.0  0.63909  0.88296  0.99992  1.0000
  C   C31       1.0  0.65244  0.24318  0.99994  1.0000
  C   C32       1.0  0.78698  0.25810  0.99993  1.0000
  C   C33       1.0  0.42071  0.32770  0.99992  1.0000
  C   C34       1.0  0.42234  0.39109  0.99990  1.0000
  N   N3        1.0  0.37522  0.24500  0.35358  1.0000
  N   N4        1.0  0.48640  0.20424  0.64631  1.0000
  C   C35       1.0  0.44314  0.22009  0.42137  1.0000
  C   C36       1.0  0.41846  0.22915  0.57853  1.0000
  H   H1        1.0  0.63961  0.06086  1.00000  1.0000
  Cl  Cl1       1.0  0.80057  0.14485  0.99997  1.0000
  H   H2        1.0  0.03966  0.27899  0.99993  1.0000
  H   H3        1.0  0.03530  0.14447  0.99993  1.0000
  Cl  Cl2       1.0  0.30046  0.27243  0.66855  1.0000
  Cl  Cl3       1.0  0.68549  0.94165  0.99995  1.0000
  Cl  Cl4       1.0  0.79244  0.80663  0.99991  1.0000
  H   H4        1.0  0.82630  0.30477  0.99992  1.0000
  Cl  Cl5       1.0  0.78902  0.67223  0.99992  1.0000
  H   H5        1.0  0.62571  0.51293  0.99991  1.0000
  Cl  Cl6       1.0  0.60466  0.16110  0.55630  1.0000
  H   H6        1.0  0.62295  0.40487  0.99989  1.0000
  Cl  Cl7       1.0  0.17273  0.37318  0.99992  1.0000
  H   H7        1.0  0.22475  0.49642  0.99990  1.0000
  H   H8        1.0  0.11847  0.65781  0.99987  1.0000
  H   H9        1.0  0.12122  0.76585  0.99988  1.0000
  Cl  Cl8       1.0  0.18664  0.92111  0.99998  1.0000
  H   H10       1.0  0.23867  0.04437  0.99999  1.0000
  Cl  Cl9       1.0  0.56086  0.17665  0.33134  1.0000
  H   H11       1.0  0.29879  0.27303  0.41190  1.0000
