data_image0
_chemical_formula_structural       O7Zn2OC24N2C8HCH3CH7CH3CH3CH3CH6CH4CH4
_chemical_formula_sum              "O8 Zn2 C40 N2 H34"
_cell_length_a       10.6546
_cell_length_b       10.6546
_cell_length_c       9.73022
_cell_angle_alpha    90.0015
_cell_angle_beta     89.9963
_cell_angle_gamma    84.4851

_space_group_name_H-M_alt    "P 1"
_space_group_IT_number       1

loop_
  _space_group_symop_operation_xyz
  'x, y, z'

loop_
  _atom_site_type_symbol
  _atom_site_label
  _atom_site_symmetry_multiplicity
  _atom_site_fract_x
  _atom_site_fract_y
  _atom_site_fract_z
  _atom_site_occupancy
  O   O1        1.0  0.66784  0.17639  0.88561  1.0000
  O   O2        1.0  0.30236  0.19320  0.88563  1.0000
  O   O3        1.0  0.49350  0.00206  0.88562  1.0000
  O   O4        1.0  0.47669  0.36753  0.88562  1.0000
  O   O5        1.0  0.49350  0.00206  0.11420  1.0000
  O   O6        1.0  0.30235  0.19320  0.11421  1.0000
  O   O7        1.0  0.66783  0.17640  0.11419  1.0000
  Zn  Zn1       1.0  0.48509  0.18480  0.15049  1.0000
  Zn  Zn2       1.0  0.48510  0.18479  0.84933  1.0000
  O   O8        1.0  0.47669  0.36754  0.11420  1.0000
  C   C1        1.0  0.25556  0.19197  0.99992  1.0000
  C   C2        1.0  0.11611  0.18828  0.99993  1.0000
  C   C3        1.0  0.03663  0.30082  0.99991  1.0000
  C   C4        1.0  0.90561  0.29734  0.99989  1.0000
  C   C5        1.0  0.93357  0.06877  0.99990  1.0000
  C   C6        1.0  0.06459  0.07225  0.99993  1.0000
  C   C7        1.0  0.08815  0.41684  0.99991  1.0000
  C   C8        1.0  0.00867  0.52939  0.99989  1.0000
  C   C9        1.0  0.87765  0.52592  0.99987  1.0000
  C   C10       1.0  0.82611  0.40989  0.99986  1.0000
  C   C11       1.0  0.49226  0.95526  0.99990  1.0000
  C   C12       1.0  0.48857  0.81582  0.99989  1.0000
  C   C13       1.0  0.48684  0.75030  0.87530  1.0000
  C   C14       1.0  0.48336  0.61928  0.87530  1.0000
  C   C15       1.0  0.48335  0.61930  0.12452  1.0000
  C   C16       1.0  0.48682  0.75032  0.12451  1.0000
  C   C17       1.0  0.48859  0.81580  0.75069  1.0000
  C   C18       1.0  0.48686  0.75029  0.62608  1.0000
  C   C19       1.0  0.48338  0.61927  0.62609  1.0000
  C   C20       1.0  0.48163  0.55376  0.75070  1.0000
  C   C21       1.0  0.71463  0.17763  0.99989  1.0000
  C   C22       1.0  0.85408  0.18132  0.99987  1.0000
  C   C23       1.0  0.47793  0.41434  0.99991  1.0000
  C   C24       1.0  0.48162  0.55378  0.99991  1.0000
  N   N1        1.0  0.48510  0.18480  0.35603  1.0000
  N   N2        1.0  0.48510  0.18478  0.64379  1.0000
  C   C25       1.0  0.56976  0.10020  0.42795  1.0000
  C   C26       1.0  0.56976  0.10018  0.57183  1.0000
  C   C27       1.0  0.40043  0.26939  0.57186  1.0000
  C   C28       1.0  0.40043  0.26940  0.42798  1.0000
  C   C29       1.0  0.65443  0.01560  0.35599  1.0000
  C   C30       1.0  0.73910  0.93098  0.42792  1.0000
  C   C31       1.0  0.73910  0.93097  0.57180  1.0000
  C   C32       1.0  0.65443  0.01557  0.64376  1.0000
  H   H1        1.0  0.12931  0.98061  0.99994  1.0000
  C   C33       1.0  0.48147  0.54720  0.48903  1.0000
  H   H2        1.0  0.47914  0.45979  0.50688  1.0000
  H   H3        1.0  0.55515  0.55972  0.43783  1.0000
  H   H4        1.0  0.40893  0.57761  0.43784  1.0000
  C   C34       1.0  0.23227  0.42067  0.99994  1.0000
  H   H5        1.0  0.25158  0.50589  0.99995  1.0000
  H   H6        1.0  0.26710  0.37924  0.92025  1.0000
  H   H7        1.0  0.26705  0.37926  0.07968  1.0000
  H   H8        1.0  0.05064  0.62386  0.99991  1.0000
  H   H9        1.0  0.71942  0.40707  0.99987  1.0000
  H   H10       1.0  0.89160  0.97431  0.99987  1.0000
  H   H11       1.0  0.48828  0.80363  0.52462  1.0000
  C   C35       1.0  0.79022  0.64972  0.99985  1.0000
  H   H12       1.0  0.83967  0.71931  0.99984  1.0000
  H   H13       1.0  0.73850  0.65312  0.07954  1.0000
  H   H14       1.0  0.73855  0.65310  0.92011  1.0000
  C   C36       1.0  0.47777  0.40964  0.75070  1.0000
  H   H15       1.0  0.47698  0.38000  0.65865  1.0000
  H   H16       1.0  0.40387  0.38897  0.79673  1.0000
  H   H17       1.0  0.55009  0.37104  0.79672  1.0000
  C   C37       1.0  0.48143  0.54725  0.26158  1.0000
  H   H18       1.0  0.47913  0.45983  0.24373  1.0000
  H   H19       1.0  0.40890  0.57766  0.31278  1.0000
  H   H20       1.0  0.55512  0.55978  0.31276  1.0000
  C   C38       1.0  0.49259  0.95990  0.75067  1.0000
  H   H21       1.0  0.49343  0.98952  0.65862  1.0000
  H   H22       1.0  0.56653  0.98046  0.79670  1.0000
  H   H23       1.0  0.42031  0.99861  0.79668  1.0000
  H   H24       1.0  0.48820  0.80367  0.22596  1.0000
  H   H25       1.0  0.65444  0.01561  0.23884  1.0000
  H   H26       1.0  0.80803  0.86210  0.36932  1.0000
  C   C39       1.0  0.83222  0.83790  0.65091  1.0000
  H   H27       1.0  0.88265  0.78753  0.58744  1.0000
  H   H28       1.0  0.78660  0.78519  0.70703  1.0000
  H   H29       1.0  0.88489  0.88357  0.70703  1.0000
  H   H30       1.0  0.65442  0.01554  0.76092  1.0000
  C   C40       1.0  0.30731  0.36245  0.65101  1.0000
  H   H31       1.0  0.31945  0.35034  0.74701  1.0000
  H   H32       1.0  0.22338  0.34804  0.62745  1.0000
  H   H33       1.0  0.32169  0.44641  0.62744  1.0000
  H   H34       1.0  0.33149  0.33830  0.36942  1.0000
