data_image0
_chemical_formula_structural       O14Cu4O2C50N4C2N4C20N4C32H4F4H2F8H6F2H6F2H14F2H2F2H2
_chemical_formula_sum              "O16 Cu4 C104 N12 H36 F20"
_cell_length_a       15.5382
_cell_length_b       19.1889
_cell_length_c       14.1856
_cell_angle_alpha    76.8856
_cell_angle_beta     97.8758
_cell_angle_gamma    65.2084

_space_group_name_H-M_alt    "P 1"
_space_group_IT_number       1

loop_
  _space_group_symop_operation_xyz
  'x, y, z'

loop_
  _atom_site_type_symbol
  _atom_site_label
  _atom_site_symmetry_multiplicity
  _atom_site_fract_x
  _atom_site_fract_y
  _atom_site_fract_z
  _atom_site_occupancy
  O   O1        1.0  0.22940  0.79426  0.91660  1.0000
  O   O2        1.0  0.72940  0.29426  0.41660  1.0000
  O   O3        1.0  0.95480  0.87497  0.91659  1.0000
  O   O4        1.0  0.45480  0.37497  0.41659  1.0000
  O   O5        1.0  0.10003  0.73096  0.91661  1.0000
  O   O6        1.0  0.60003  0.23096  0.41661  1.0000
  O   O7        1.0  0.08417  0.93826  0.91657  1.0000
  O   O8        1.0  0.58417  0.43827  0.41657  1.0000
  O   O9        1.0  0.14293  0.68843  0.08345  1.0000
  O   O10       1.0  0.64293  0.18843  0.58345  1.0000
  O   O11       1.0  0.99770  0.83243  0.08343  1.0000
  O   O12       1.0  0.49770  0.33243  0.58343  1.0000
  O   O13       1.0  0.27230  0.75172  0.08344  1.0000
  O   O14       1.0  0.77230  0.25172  0.58344  1.0000
  Cu  Cu1       1.0  0.13892  0.78819  0.09867  1.0000
  Cu  Cu2       1.0  0.63892  0.28819  0.59867  1.0000
  Cu  Cu3       1.0  0.08818  0.83850  0.90136  1.0000
  Cu  Cu4       1.0  0.58818  0.33850  0.40136  1.0000
  O   O15       1.0  0.12707  0.89573  0.08342  1.0000
  O   O16       1.0  0.62707  0.39573  0.58342  1.0000
  C   C1        1.0  0.94112  0.86214  0.00001  1.0000
  C   C2        1.0  0.44112  0.36214  0.50001  1.0000
  C   C3        1.0  0.83644  0.88729  0.00000  1.0000
  C   C4        1.0  0.33644  0.38729  0.50000  1.0000
  C   C5        1.0  0.12097  0.68381  0.00004  1.0000
  C   C6        1.0  0.62097  0.18381  0.50004  1.0000
  C   C7        1.0  0.11943  0.60669  0.00005  1.0000
  C   C8        1.0  0.61943  0.10669  0.50004  1.0000
  C   C9        1.0  0.54969  0.63742  0.00004  1.0000
  C   C10       1.0  0.04969  0.13742  0.50004  1.0000
  C   C11       1.0  0.45133  0.66107  0.00003  1.0000
  C   C12       1.0  0.95133  0.16107  0.50003  1.0000
  C   C13       1.0  0.42833  0.79411  0.00001  1.0000
  C   C14       1.0  0.92833  0.29411  0.50001  1.0000
  C   C15       1.0  0.52669  0.77046  0.00002  1.0000
  C   C16       1.0  0.02669  0.27046  0.50002  1.0000
  C   C17       1.0  0.58737  0.69212  0.00003  1.0000
  C   C18       1.0  0.08737  0.19212  0.50003  1.0000
  C   C19       1.0  0.56437  0.82517  0.00001  1.0000
  C   C20       1.0  0.06437  0.32516  0.50001  1.0000
  C   C21       1.0  0.66273  0.80153  0.00002  1.0000
  C   C22       1.0  0.16273  0.30153  0.50001  1.0000
  C   C23       1.0  0.72341  0.72319  0.00003  1.0000
  C   C24       1.0  0.22341  0.22319  0.50003  1.0000
  C   C25       1.0  0.68572  0.66848  0.00003  1.0000
  C   C26       1.0  0.18572  0.16848  0.50004  1.0000
  C   C27       1.0  0.50369  0.90351  0.99999  1.0000
  C   C28       1.0  0.00369  0.40351  0.49999  1.0000
  C   C29       1.0  0.54137  0.95821  0.99998  1.0000
  C   C30       1.0  0.04137  0.45821  0.49998  1.0000
  C   C31       1.0  0.63973  0.93457  1.00000  1.0000
  C   C32       1.0  0.13973  0.43457  0.50000  1.0000
  C   C33       1.0  0.70041  0.85623  0.00001  1.0000
  C   C34       1.0  0.20041  0.35623  0.50001  1.0000
  C   C35       1.0  0.67741  0.98928  0.99999  1.0000
  C   C36       1.0  0.17741  0.48928  0.49999  1.0000
  C   C37       1.0  0.77577  0.96564  0.99999  1.0000
  C   C38       1.0  0.27577  0.46564  0.49999  1.0000
  C   C39       1.0  0.79877  0.83259  0.00001  1.0000
  C   C40       1.0  0.29877  0.33259  0.50001  1.0000
  C   C41       1.0  0.20464  0.54036  0.00005  1.0000
  C   C42       1.0  0.70464  0.04036  0.50005  1.0000
  C   C43       1.0  0.20319  0.46791  0.00004  1.0000
  C   C44       1.0  0.70319  0.96791  0.50004  1.0000
  C   C45       1.0  0.11652  0.46178  0.00003  1.0000
  C   C46       1.0  0.61652  0.96178  0.50003  1.0000
  C   C47       1.0  0.03130  0.52812  0.00002  1.0000
  C   C48       1.0  0.53130  0.02812  0.50002  1.0000
  C   C49       1.0  0.03275  0.60058  0.00003  1.0000
  C   C50       1.0  0.53275  0.10058  0.50003  1.0000
  N   N1        1.0  0.06488  0.35594  0.05681  1.0000
  N   N2        1.0  0.56488  0.85594  0.55681  1.0000
  N   N3        1.0  0.06351  0.28710  0.05681  1.0000
  N   N4        1.0  0.56351  0.78710  0.55681  1.0000
  C   C51       1.0  0.11215  0.24347  0.00001  1.0000
  C   C52       1.0  0.61215  0.74347  0.50001  1.0000
  N   N5        1.0  0.16223  0.27127  0.94324  1.0000
  N   N6        1.0  0.66223  0.77127  0.44323  1.0000
  N   N7        1.0  0.16360  0.34011  0.94324  1.0000
  N   N8        1.0  0.66360  0.84011  0.44324  1.0000
  C   C53       1.0  0.11494  0.38321  0.00003  1.0000
  C   C54       1.0  0.61494  0.88322  0.50003  1.0000
  C   C55       1.0  0.19579  0.09858  0.00000  1.0000
  C   C56       1.0  0.69579  0.59858  0.50000  1.0000
  C   C57       1.0  0.19433  0.02612  0.99998  1.0000
  C   C58       1.0  0.69433  0.52612  0.49998  1.0000
  C   C59       1.0  0.02245  0.08634  0.99997  1.0000
  C   C60       1.0  0.52245  0.58634  0.49997  1.0000
  C   C61       1.0  0.02390  0.15879  0.99998  1.0000
  C   C62       1.0  0.52390  0.65879  0.49998  1.0000
  C   C63       1.0  0.11058  0.16491  0.00000  1.0000
  C   C64       1.0  0.61058  0.66491  0.50000  1.0000
  C   C65       1.0  0.28598  0.76455  0.00002  1.0000
  C   C66       1.0  0.78598  0.26455  0.50002  1.0000
  C   C67       1.0  0.39065  0.73940  0.00001  1.0000
  C   C68       1.0  0.89065  0.23940  0.50001  1.0000
  C   C69       1.0  0.10613  0.94288  0.99999  1.0000
  C   C70       1.0  0.60613  0.44288  0.49999  1.0000
  C   C71       1.0  0.10767  0.02000  0.99997  1.0000
  C   C72       1.0  0.60767  0.52000  0.49997  1.0000
  N   N9        1.0  0.17461  0.75281  0.23745  1.0000
  N   N10       1.0  0.67461  0.25281  0.73745  1.0000
  N   N11       1.0  0.05250  0.87387  0.76258  1.0000
  N   N12       1.0  0.55250  0.37387  0.26258  1.0000
  C   C73       1.0  0.94764  0.97780  0.60506  1.0000
  C   C74       1.0  0.44764  0.47780  0.10506  1.0000
  C   C75       1.0  0.97468  0.95100  0.71008  1.0000
  C   C76       1.0  0.47468  0.45100  0.21008  1.0000
  C   C77       1.0  0.10330  0.82351  0.71007  1.0000
  C   C78       1.0  0.60330  0.32351  0.21007  1.0000
  C   C79       1.0  0.07627  0.85030  0.60504  1.0000
  C   C80       1.0  0.57627  0.35030  0.10504  1.0000
  C   C81       1.0  0.99843  0.92745  0.55254  1.0000
  C   C82       1.0  0.49843  0.42744  0.05254  1.0000
  C   C83       1.0  0.12707  0.79995  0.55252  1.0000
  C   C84       1.0  0.62706  0.29995  0.05252  1.0000
  C   C85       1.0  0.10004  0.82673  0.44750  1.0000
  C   C86       1.0  0.60004  0.32673  0.94750  1.0000
  C   C87       1.0  0.02221  0.90388  0.39500  1.0000
  C   C88       1.0  0.52221  0.40388  0.89500  1.0000
  C   C89       1.0  0.97140  0.95423  0.44752  1.0000
  C   C90       1.0  0.47140  0.45423  0.94752  1.0000
  C   C91       1.0  0.20490  0.72281  0.60502  1.0000
  C   C92       1.0  0.70490  0.22281  0.10502  1.0000
  C   C93       1.0  0.25570  0.67245  0.55251  1.0000
  C   C94       1.0  0.75570  0.17245  0.05251  1.0000
  C   C95       1.0  0.22867  0.69924  0.44748  1.0000
  C   C96       1.0  0.72867  0.19924  0.94748  1.0000
  C   C97       1.0  0.15084  0.77638  0.39498  1.0000
  C   C98       1.0  0.65084  0.27638  0.89498  1.0000
  C   C99       1.0  0.27947  0.64888  0.39496  1.0000
  C   C100      1.0  0.77947  0.14888  0.89496  1.0000
  C   C101      1.0  0.25244  0.67567  0.28994  1.0000
  C   C102      1.0  0.75244  0.17567  0.78994  1.0000
  C   C103      1.0  0.12381  0.80316  0.28996  1.0000
  C   C104      1.0  0.62381  0.30316  0.78996  1.0000
  H   H1        1.0  0.84817  0.76880  0.00003  1.0000
  H   H2        1.0  0.34817  0.26880  0.50003  1.0000
  H   H3        1.0  0.37891  0.85789  0.99999  1.0000
  H   H4        1.0  0.87891  0.35790  0.49999  1.0000
  F   F1        1.0  0.92060  0.00461  0.76597  1.0000
  F   F2        1.0  0.42060  0.50460  0.26597  1.0000
  F   F3        1.0  0.28804  0.10509  0.00003  1.0000
  F   F4        1.0  0.78804  0.60509  0.50003  1.0000
  H   H5        1.0  0.96336  0.65458  0.00002  1.0000
  H   H6        1.0  0.46336  0.15459  0.50002  1.0000
  F   F5        1.0  0.93021  0.07982  0.99996  1.0000
  F   F6        1.0  0.43021  0.57982  0.49996  1.0000
  F   F7        1.0  0.88856  0.03633  0.39165  1.0000
  F   F8        1.0  0.38856  0.53633  0.89165  1.0000
  F   F9        1.0  0.81587  0.02386  0.99998  1.0000
  F   F10       1.0  0.31587  0.52386  0.49998  1.0000
  F   F11       1.0  0.30651  0.62207  0.23405  1.0000
  F   F12       1.0  0.80651  0.12207  0.73405  1.0000
  H   H7        1.0  0.49196  0.02200  0.99997  1.0000
  H   H8        1.0  0.99196  0.52200  0.49997  1.0000
  H   H9        1.0  0.42065  0.61652  0.00003  1.0000
  H   H10       1.0  0.92065  0.11652  0.50004  1.0000
  H   H11       1.0  0.96074  0.52313  0.00001  1.0000
  H   H12       1.0  0.46074  0.02313  0.50001  1.0000
  F   F13       1.0  0.23367  0.69430  0.71679  1.0000
  F   F14       1.0  0.73367  0.19430  0.21679  1.0000
  H   H13       1.0  0.42361  0.92276  0.99998  1.0000
  H   H14       1.0  0.92361  0.42276  0.49998  1.0000
  H   H15       1.0  0.73513  0.60468  0.00005  1.0000
  H   H16       1.0  0.23513  0.10468  0.50005  1.0000
  H   H17       1.0  0.62800  0.05307  0.99996  1.0000
  H   H18       1.0  0.12800  0.55307  0.49996  1.0000
  F   F15       1.0  0.86479  0.05990  0.54918  1.0000
  F   F16       1.0  0.36479  0.55990  0.04918  1.0000
  H   H19       1.0  0.27522  0.54534  0.00006  1.0000
  H   H20       1.0  0.77522  0.04534  0.50006  1.0000
  H   H21       1.0  0.27258  0.41390  0.00004  1.0000
  H   H22       1.0  0.77258  0.91390  0.50004  1.0000
  H   H23       1.0  0.00020  0.92569  0.30949  1.0000
  H   H24       1.0  0.50020  0.42569  0.80949  1.0000
  H   H25       1.0  0.26372  0.97212  0.99998  1.0000
  H   H26       1.0  0.76372  0.47212  0.49998  1.0000
  H   H27       1.0  0.16668  0.76070  0.75282  1.0000
  H   H28       1.0  0.66668  0.26070  0.25282  1.0000
  H   H29       1.0  0.95451  0.21280  0.99998  1.0000
  H   H30       1.0  0.45451  0.71280  0.49998  1.0000
  H   H31       1.0  0.06042  0.86598  0.24722  1.0000
  H   H32       1.0  0.56042  0.36598  0.74722  1.0000
  F   F17       1.0  0.33854  0.59035  0.60838  1.0000
  F   F18       1.0  0.83854  0.09035  0.10838  1.0000
  H   H33       1.0  0.80349  0.70395  0.00002  1.0000
  H   H34       1.0  0.30349  0.20394  0.50002  1.0000
  F   F19       1.0  0.61427  0.55403  0.00006  1.0000
  F   F20       1.0  0.11427  0.05403  0.50006  1.0000
  H   H35       1.0  0.34285  0.58607  0.43772  1.0000
  H   H36       1.0  0.84285  0.08607  0.93772  1.0000
