data_image0
_chemical_formula_structural       O14Cu4O2C56N4C16H2Br4H2Br2H2Br16H4
_chemical_formula_sum              "O16 Cu4 C72 N4 H10 Br22"
_cell_length_a       16.1093
_cell_length_b       10.6545
_cell_length_c       14.5863
_cell_angle_alpha    89.9986
_cell_angle_beta     89.9946
_cell_angle_gamma    83.9736

_space_group_name_H-M_alt    "P 1"
_space_group_IT_number       1

loop_
  _space_group_symop_operation_xyz
  'x, y, z'

loop_
  _atom_site_type_symbol
  _atom_site_label
  _atom_site_symmetry_multiplicity
  _atom_site_fract_x
  _atom_site_fract_y
  _atom_site_fract_z
  _atom_site_occupancy
  O   O1        1.0  0.10409  0.16142  0.92372  1.0000
  O   O2        1.0  0.60409  0.66142  0.42372  1.0000
  O   O3        1.0  0.86215  0.18151  0.92373  1.0000
  O   O4        1.0  0.36215  0.68151  0.42373  1.0000
  O   O5        1.0  0.98868  0.98865  0.92373  1.0000
  O   O6        1.0  0.48868  0.48865  0.42373  1.0000
  O   O7        1.0  0.97756  0.35428  0.92373  1.0000
  O   O8        1.0  0.47756  0.85428  0.42373  1.0000
  O   O9        1.0  0.98867  0.98865  0.07621  1.0000
  O   O10       1.0  0.48867  0.48865  0.57621  1.0000
  O   O11       1.0  0.86214  0.18151  0.07621  1.0000
  O   O12       1.0  0.36214  0.68151  0.57621  1.0000
  O   O13       1.0  0.10408  0.16142  0.07620  1.0000
  O   O14       1.0  0.60408  0.66142  0.57620  1.0000
  Cu  Cu1       1.0  0.98311  0.17146  0.09013  1.0000
  Cu  Cu2       1.0  0.48311  0.67146  0.59013  1.0000
  Cu  Cu3       1.0  0.98312  0.17147  0.90980  1.0000
  Cu  Cu4       1.0  0.48312  0.67147  0.40980  1.0000
  O   O15       1.0  0.97755  0.35428  0.07621  1.0000
  O   O16       1.0  0.47755  0.85428  0.57621  1.0000
  C   C1        1.0  0.83116  0.18069  0.99997  1.0000
  C   C2        1.0  0.33116  0.68070  0.49997  1.0000
  C   C3        1.0  0.73885  0.17825  0.99997  1.0000
  C   C4        1.0  0.23885  0.67826  0.49998  1.0000
  C   C5        1.0  0.52647  0.17261  0.08308  1.0000
  C   C6        1.0  0.02648  0.67261  0.58308  1.0000
  C   C7        1.0  0.43974  0.17031  0.08308  1.0000
  C   C8        1.0  0.93974  0.67031  0.58308  1.0000
  C   C9        1.0  0.43976  0.17032  0.91684  1.0000
  C   C10       1.0  0.93976  0.67032  0.41684  1.0000
  C   C11       1.0  0.52649  0.17261  0.91684  1.0000
  C   C12       1.0  0.02649  0.67261  0.41684  1.0000
  C   C13       1.0  0.56985  0.17377  0.99997  1.0000
  C   C14       1.0  0.06985  0.67377  0.49997  1.0000
  C   C15       1.0  0.39638  0.16916  0.99996  1.0000
  C   C16       1.0  0.89638  0.66916  0.49996  1.0000
  C   C17       1.0  0.30234  0.16666  0.99996  1.0000
  C   C18       1.0  0.80234  0.66666  0.49996  1.0000
  C   C19       1.0  0.66389  0.17627  0.99997  1.0000
  C   C20       1.0  0.16389  0.67627  0.49997  1.0000
  C   C21       1.0  0.98786  0.94186  0.99997  1.0000
  C   C22       1.0  0.48786  0.44186  0.49997  1.0000
  C   C23       1.0  0.98542  0.80245  0.99996  1.0000
  C   C24       1.0  0.48542  0.30245  0.49996  1.0000
  C   C25       1.0  0.98543  0.80245  0.83372  1.0000
  C   C26       1.0  0.48544  0.30245  0.33372  1.0000
  C   C27       1.0  0.98430  0.73695  0.75060  1.0000
  C   C28       1.0  0.48430  0.23695  0.25060  1.0000
  C   C29       1.0  0.98200  0.60596  0.75060  1.0000
  C   C30       1.0  0.48200  0.10596  0.25060  1.0000
  C   C31       1.0  0.98084  0.54047  0.83373  1.0000
  C   C32       1.0  0.48084  0.04047  0.33373  1.0000
  C   C33       1.0  0.98197  0.60597  0.91685  1.0000
  C   C34       1.0  0.48198  0.10597  0.41685  1.0000
  C   C35       1.0  0.98427  0.73696  0.91684  1.0000
  C   C36       1.0  0.48427  0.23696  0.41684  1.0000
  C   C37       1.0  0.98195  0.60597  0.08309  1.0000
  C   C38       1.0  0.48195  0.10597  0.58308  1.0000
  C   C39       1.0  0.98425  0.73696  0.08309  1.0000
  C   C40       1.0  0.48425  0.23696  0.58309  1.0000
  C   C41       1.0  0.98079  0.54048  0.16621  1.0000
  C   C42       1.0  0.48079  0.04048  0.66621  1.0000
  C   C43       1.0  0.98193  0.60598  0.24933  1.0000
  C   C44       1.0  0.48193  0.10598  0.74933  1.0000
  C   C45       1.0  0.98422  0.73697  0.24933  1.0000
  C   C46       1.0  0.48422  0.23697  0.74933  1.0000
  C   C47       1.0  0.98539  0.80246  0.16621  1.0000
  C   C48       1.0  0.48539  0.30246  0.66621  1.0000
  C   C49       1.0  0.13507  0.16224  0.99996  1.0000
  C   C50       1.0  0.63507  0.66224  0.49996  1.0000
  C   C51       1.0  0.22738  0.16468  0.99995  1.0000
  C   C52       1.0  0.72738  0.66468  0.49995  1.0000
  C   C53       1.0  0.97837  0.40107  0.99997  1.0000
  C   C54       1.0  0.47837  0.90107  0.49997  1.0000
  C   C55       1.0  0.98081  0.54048  0.99997  1.0000
  C   C56       1.0  0.48081  0.04048  0.49997  1.0000
  N   N1        1.0  0.98311  0.17146  0.21696  1.0000
  N   N2        1.0  0.48311  0.67146  0.71696  1.0000
  N   N3        1.0  0.98313  0.17146  0.78297  1.0000
  N   N4        1.0  0.48313  0.67146  0.28297  1.0000
  C   C57       1.0  0.03916  0.08609  0.45197  1.0000
  C   C58       1.0  0.53916  0.58609  0.95197  1.0000
  C   C59       1.0  0.03916  0.08609  0.54795  1.0000
  C   C60       1.0  0.53916  0.58609  0.04795  1.0000
  C   C61       1.0  0.92707  0.25683  0.54796  1.0000
  C   C62       1.0  0.42707  0.75683  0.04796  1.0000
  C   C63       1.0  0.92707  0.25683  0.45198  1.0000
  C   C64       1.0  0.42707  0.75683  0.95198  1.0000
  C   C65       1.0  0.98311  0.17146  0.40399  1.0000
  C   C66       1.0  0.48311  0.67146  0.90399  1.0000
  C   C67       1.0  0.98312  0.17146  0.59595  1.0000
  C   C68       1.0  0.48312  0.67146  0.09595  1.0000
  C   C69       1.0  0.98313  0.17146  0.70002  1.0000
  C   C70       1.0  0.48312  0.67146  0.20002  1.0000
  C   C71       1.0  0.98311  0.17146  0.29991  1.0000
  C   C72       1.0  0.48311  0.67146  0.79991  1.0000
  H   H1        1.0  0.40443  0.16937  0.15076  1.0000
  H   H2        1.0  0.90443  0.66937  0.65076  1.0000
  Br  Br1       1.0  0.85100  0.37268  0.38686  1.0000
  Br  Br2       1.0  0.35100  0.87269  0.88686  1.0000
  Br  Br3       1.0  0.38092  0.16871  0.80403  1.0000
  Br  Br4       1.0  0.88092  0.66871  0.30403  1.0000
  H   H3        1.0  0.56181  0.17355  0.84915  1.0000
  H   H4        1.0  0.06181  0.67355  0.34915  1.0000
  Br  Br5       1.0  0.98033  0.51709  0.36214  1.0000
  Br  Br6       1.0  0.48033  0.01709  0.86214  1.0000
  H   H5        1.0  0.98732  0.90910  0.83371  1.0000
  H   H6        1.0  0.48731  0.40910  0.33371  1.0000
  Br  Br7       1.0  0.98045  0.51707  0.63780  1.0000
  Br  Br8       1.0  0.48045  0.01707  0.13780  1.0000
  Br  Br9       1.0  0.11522  0.97022  0.61306  1.0000
  Br  Br10      1.0  0.61521  0.47022  0.11306  1.0000
  Br  Br11      1.0  0.11522  0.97023  0.38683  1.0000
  Br  Br12      1.0  0.61522  0.47023  0.88684  1.0000
  Br  Br13      1.0  0.98576  0.82585  0.36214  1.0000
  Br  Br14      1.0  0.48576  0.32585  0.86214  1.0000
  Br  Br15      1.0  0.58531  0.17417  0.19590  1.0000
  Br  Br16      1.0  0.08531  0.67417  0.69590  1.0000
  Br  Br17      1.0  0.98590  0.82583  0.63779  1.0000
  Br  Br18      1.0  0.48590  0.32583  0.13779  1.0000
  Br  Br19      1.0  0.98851  0.98023  0.16620  1.0000
  Br  Br20      1.0  0.48851  0.48023  0.66620  1.0000
  Br  Br21      1.0  0.97770  0.36271  0.83373  1.0000
  Br  Br22      1.0  0.47770  0.86271  0.33373  1.0000
  H   H7        1.0  0.97891  0.43383  0.16621  1.0000
  H   H8        1.0  0.47891  0.93383  0.66621  1.0000
  H   H9        1.0  0.88144  0.32634  0.58705  1.0000
  H   H10       1.0  0.38144  0.82634  0.08705  1.0000
