data_image0
_chemical_formula_structural       Zn8O26C24N4C64N4C4H2Cl4H4Cl12H4Cl6H4Cl2H2Cl2H2Cl2H2
_chemical_formula_sum              "Zn8 O26 C92 N8 H20 Cl28"
_cell_length_a       19.0771
_cell_length_b       16.9595
_cell_length_c       19.0772
_cell_angle_alpha    92.2764
_cell_angle_beta     85.4838
_cell_angle_gamma    87.7166

_space_group_name_H-M_alt    "P 1"
_space_group_IT_number       1

loop_
  _space_group_symop_operation_xyz
  'x, y, z'

loop_
  _atom_site_type_symbol
  _atom_site_label
  _atom_site_symmetry_multiplicity
  _atom_site_fract_x
  _atom_site_fract_y
  _atom_site_fract_z
  _atom_site_occupancy
  Zn  Zn1       1.0  0.09373  0.61594  0.55813  1.0000
  Zn  Zn2       1.0  0.59373  0.11594  0.05813  1.0000
  Zn  Zn3       1.0  0.08893  0.48929  0.67601  1.0000
  Zn  Zn4       1.0  0.58893  0.98929  0.17601  1.0000
  Zn  Zn5       1.0  0.97112  0.62699  0.68074  1.0000
  Zn  Zn6       1.0  0.47112  0.12699  0.18074  1.0000
  Zn  Zn7       1.0  0.97582  0.48934  0.56290  1.0000
  Zn  Zn8       1.0  0.47582  0.98934  0.06290  1.0000
  O   O1        1.0  0.03240  0.55539  0.61945  1.0000
  O   O2        1.0  0.53240  0.05539  0.11944  1.0000
  O   O3        1.0  0.19175  0.59449  0.56980  1.0000
  O   O4        1.0  0.69175  0.09449  0.06980  1.0000
  O   O5        1.0  0.06932  0.51216  0.77529  1.0000
  O   O6        1.0  0.56932  0.01216  0.27529  1.0000
  O   O7        1.0  0.98743  0.73613  0.66446  1.0000
  O   O8        1.0  0.48743  0.23613  0.16446  1.0000
  O   O9        1.0  0.18822  0.50145  0.65641  1.0000
  O   O10       1.0  0.68822  0.00145  0.15641  1.0000
  O   O11       1.0  0.07751  0.72802  0.57438  1.0000
  O   O12       1.0  0.57751  0.22801  0.07438  1.0000
  O   O13       1.0  0.98277  0.61333  0.77876  1.0000
  O   O14       1.0  0.48277  0.11333  0.27876  1.0000
  O   O15       1.0  0.87309  0.61338  0.66907  1.0000
  O   O16       1.0  0.37309  0.11338  0.16907  1.0000
  O   O17       1.0  0.99544  0.50154  0.46361  1.0000
  O   O18       1.0  0.49544  0.00153  0.96361  1.0000
  O   O19       1.0  0.87655  0.51225  0.58250  1.0000
  O   O20       1.0  0.37655  0.01225  0.08250  1.0000
  O   O21       1.0  0.08207  0.59454  0.46012  1.0000
  O   O22       1.0  0.58207  0.09455  0.96012  1.0000
  O   O23       1.0  0.07388  0.37869  0.66102  1.0000
  O   O24       1.0  0.57388  0.87869  0.16103  1.0000
  O   O25       1.0  0.99078  0.37873  0.57792  1.0000
  O   O26       1.0  0.49078  0.87873  0.07792  1.0000
  C   C1        1.0  0.84924  0.56402  0.62682  1.0000
  C   C2        1.0  0.34924  0.06402  0.12682  1.0000
  C   C3        1.0  0.77088  0.56769  0.62995  1.0000
  C   C4        1.0  0.27088  0.06769  0.12995  1.0000
  C   C5        1.0  0.73589  0.51669  0.58642  1.0000
  C   C6        1.0  0.23589  0.01669  0.08642  1.0000
  C   C7        1.0  0.66226  0.52015  0.58936  1.0000
  C   C8        1.0  0.16226  0.02015  0.08936  1.0000
  C   C9        1.0  0.62364  0.57460  0.63584  1.0000
  C   C10       1.0  0.12364  0.07460  0.13584  1.0000
  C   C11       1.0  0.65864  0.62561  0.67938  1.0000
  C   C12       1.0  0.15864  0.12561  0.17938  1.0000
  C   C13       1.0  0.73226  0.62215  0.67643  1.0000
  C   C14       1.0  0.23226  0.12215  0.17643  1.0000
  C   C15       1.0  0.40326  0.59059  0.64948  1.0000
  C   C16       1.0  0.90326  0.09059  0.14948  1.0000
  C   C17       1.0  0.32963  0.59404  0.65243  1.0000
  C   C18       1.0  0.82963  0.09404  0.15243  1.0000
  C   C19       1.0  0.33326  0.48858  0.56241  1.0000
  C   C20       1.0  0.83326  0.98858  0.06241  1.0000
  C   C21       1.0  0.40688  0.48513  0.55947  1.0000
  C   C22       1.0  0.90688  0.98513  0.05947  1.0000
  C   C23       1.0  0.44188  0.53614  0.60300  1.0000
  C   C24       1.0  0.94188  0.03614  0.10300  1.0000
  N   N1        1.0  0.54838  0.57814  0.63885  1.0000
  N   N2        1.0  0.04838  0.07814  0.13885  1.0000
  N   N3        1.0  0.51713  0.53260  0.59999  1.0000
  N   N4        1.0  0.01713  0.03261  0.09999  1.0000
  C   C25       1.0  0.03234  0.35003  0.61946  1.0000
  C   C26       1.0  0.53234  0.85003  0.11946  1.0000
  C   C27       1.0  0.03238  0.26217  0.61944  1.0000
  C   C28       1.0  0.53238  0.76217  0.11944  1.0000
  C   C29       1.0  0.98920  0.89068  0.57617  1.0000
  C   C30       1.0  0.48920  0.39068  0.07617  1.0000
  C   C31       1.0  0.07580  0.89069  0.66264  1.0000
  C   C32       1.0  0.57580  0.39069  0.16264  1.0000
  C   C33       1.0  0.07578  0.97324  0.66264  1.0000
  C   C34       1.0  0.57578  0.47324  0.16264  1.0000
  C   C35       1.0  0.03246  0.01451  0.61942  1.0000
  C   C36       1.0  0.53246  0.51451  0.11942  1.0000
  C   C37       1.0  0.98917  0.97324  0.57618  1.0000
  C   C38       1.0  0.48917  0.47324  0.07618  1.0000
  C   C39       1.0  0.11907  0.01453  0.70588  1.0000
  C   C40       1.0  0.61907  0.51453  0.20588  1.0000
  C   C41       1.0  0.11904  0.09708  0.70589  1.0000
  C   C42       1.0  0.61904  0.59708  0.20589  1.0000
  C   C43       1.0  0.07573  0.13835  0.66266  1.0000
  C   C44       1.0  0.57573  0.63835  0.16266  1.0000
  C   C45       1.0  0.03243  0.09707  0.61942  1.0000
  C   C46       1.0  0.53243  0.59707  0.11942  1.0000
  C   C47       1.0  0.98912  0.13834  0.57620  1.0000
  C   C48       1.0  0.48912  0.63834  0.07620  1.0000
  C   C49       1.0  0.94582  0.09706  0.53295  1.0000
  C   C50       1.0  0.44582  0.59706  0.03295  1.0000
  C   C51       1.0  0.94585  0.01451  0.53295  1.0000
  C   C52       1.0  0.44585  0.51451  0.03295  1.0000
  C   C53       1.0  0.07570  0.22090  0.66267  1.0000
  C   C54       1.0  0.57570  0.72090  0.16267  1.0000
  C   C55       1.0  0.98909  0.22089  0.57620  1.0000
  C   C56       1.0  0.48909  0.72089  0.07620  1.0000
  C   C57       1.0  0.21627  0.54673  0.61205  1.0000
  C   C58       1.0  0.71628  0.04673  0.11205  1.0000
  C   C59       1.0  0.29463  0.54304  0.60889  1.0000
  C   C60       1.0  0.79463  0.04304  0.10889  1.0000
  C   C61       1.0  0.03982  0.54681  0.43557  1.0000
  C   C62       1.0  0.53982  0.04681  0.93557  1.0000
  C   C63       1.0  0.04298  0.54316  0.35721  1.0000
  C   C64       1.0  0.54298  0.04316  0.85721  1.0000
  C   C65       1.0  0.03248  0.76156  0.61941  1.0000
  C   C66       1.0  0.53248  0.26156  0.11941  1.0000
  C   C67       1.0  0.03251  0.84941  0.61940  1.0000
  C   C68       1.0  0.53251  0.34941  0.11940  1.0000
  C   C69       1.0  0.99940  0.59411  0.32221  1.0000
  C   C70       1.0  0.49940  0.09411  0.82221  1.0000
  C   C71       1.0  0.00237  0.59067  0.24858  1.0000
  C   C72       1.0  0.50237  0.09067  0.74858  1.0000
  C   C73       1.0  0.04892  0.53628  0.20997  1.0000
  C   C74       1.0  0.54892  0.03628  0.70997  1.0000
  C   C75       1.0  0.09250  0.48532  0.24498  1.0000
  C   C76       1.0  0.59250  0.98532  0.74498  1.0000
  C   C77       1.0  0.08953  0.48876  0.31860  1.0000
  C   C78       1.0  0.58953  0.98876  0.81860  1.0000
  C   C79       1.0  0.06264  0.52034  0.98958  1.0000
  C   C80       1.0  0.56263  0.02034  0.48959  1.0000
  C   C81       1.0  0.06560  0.51691  0.91596  1.0000
  C   C82       1.0  0.56560  0.01691  0.41596  1.0000
  C   C83       1.0  0.97547  0.62226  0.91957  1.0000
  C   C84       1.0  0.47548  0.12226  0.41957  1.0000
  C   C85       1.0  0.97251  0.62570  0.99319  1.0000
  C   C86       1.0  0.47251  0.12570  0.49319  1.0000
  C   C87       1.0  0.01609  0.57474  0.02820  1.0000
  C   C88       1.0  0.51609  0.07474  0.52820  1.0000
  N   N5        1.0  0.05195  0.53276  0.13471  1.0000
  N   N6        1.0  0.55195  0.03276  0.63471  1.0000
  N   N7        1.0  0.01305  0.57825  0.10345  1.0000
  N   N8        1.0  0.51305  0.07825  0.60345  1.0000
  C   C89       1.0  0.02505  0.56399  0.80260  1.0000
  C   C90       1.0  0.52505  0.06399  0.30260  1.0000
  C   C91       1.0  0.02203  0.56786  0.88095  1.0000
  C   C92       1.0  0.52203  0.06786  0.38095  1.0000
  H   H1        1.0  0.43174  0.63212  0.68493  1.0000
  H   H2        1.0  0.93174  0.13212  0.18493  1.0000
  Cl  Cl1       1.0  0.11742  0.45628  0.03358  1.0000
  Cl  Cl2       1.0  0.61742  0.95628  0.53358  1.0000
  Cl  Cl3       1.0  0.13026  0.83881  0.71698  1.0000
  Cl  Cl4       1.0  0.63026  0.33881  0.21698  1.0000
  H   H3        1.0  0.13040  0.44103  0.21353  1.0000
  H   H4        1.0  0.63040  0.94103  0.71353  1.0000
  H   H5        1.0  0.10351  0.47262  0.88452  1.0000
  H   H6        1.0  0.60351  0.97262  0.38452  1.0000
  Cl  Cl5       1.0  0.45543  0.41666  0.50104  1.0000
  Cl  Cl6       1.0  0.95543  0.91666  0.00104  1.0000
  Cl  Cl7       1.0  0.94755  0.65469  0.20458  1.0000
  Cl  Cl8       1.0  0.44755  0.15469  0.70458  1.0000
  Cl  Cl9       1.0  0.93463  0.27277  0.52185  1.0000
  Cl  Cl10      1.0  0.43463  0.77277  0.02185  1.0000
  Cl  Cl11      1.0  0.89137  0.14895  0.47862  1.0000
  Cl  Cl12      1.0  0.39137  0.64895  0.97862  1.0000
  Cl  Cl13      1.0  0.17347  0.14896  0.76025  1.0000
  Cl  Cl14      1.0  0.67347  0.64897  0.26025  1.0000
  Cl  Cl15      1.0  0.13011  0.27279  0.71703  1.0000
  Cl  Cl16      1.0  0.63011  0.77279  0.21703  1.0000
  H   H7        1.0  0.96150  0.63841  0.35365  1.0000
  H   H8        1.0  0.46150  0.13841  0.85365  1.0000
  H   H9        1.0  0.12502  0.44727  0.34710  1.0000
  H   H10       1.0  0.62502  0.94727  0.84710  1.0000
  Cl  Cl17      1.0  0.77626  0.68627  0.73115  1.0000
  Cl  Cl18      1.0  0.27626  0.18627  0.23115  1.0000
  Cl  Cl19      1.0  0.93478  0.83879  0.52181  1.0000
  Cl  Cl20      1.0  0.43478  0.33879  0.02181  1.0000
  Cl  Cl21      1.0  0.78444  0.44822  0.52799  1.0000
  Cl  Cl22      1.0  0.28444  0.94822  0.02799  1.0000
  H   H11       1.0  0.63377  0.47861  0.55391  1.0000
  H   H12       1.0  0.13377  0.97861  0.05391  1.0000
  H   H13       1.0  0.62719  0.66995  0.71722  1.0000
  H   H14       1.0  0.12719  0.16995  0.21722  1.0000
  Cl  Cl23      1.0  0.17352  0.96264  0.76022  1.0000
  Cl  Cl24      1.0  0.67352  0.46264  0.26022  1.0000
  H   H15       1.0  0.93460  0.66999  0.02463  1.0000
  H   H16       1.0  0.43460  0.16999  0.52463  1.0000
  Cl  Cl25      1.0  0.89143  0.96261  0.47859  1.0000
  Cl  Cl26      1.0  0.39143  0.46261  0.97859  1.0000
  H   H17       1.0  0.30476  0.44705  0.52697  1.0000
  H   H18       1.0  0.80476  0.94705  0.02697  1.0000
  Cl  Cl27      1.0  0.28107  0.66250  0.71087  1.0000
  Cl  Cl28      1.0  0.78107  0.16250  0.21086  1.0000
  H   H19       1.0  0.94000  0.66375  0.89106  1.0000
  H   H20       1.0  0.44000  0.16375  0.39106  1.0000
