data_image0
_chemical_formula_structural       Zn4O13C9N2CN2C11N2CN2C19N2CN2C6H2C2H10C2H6C2H6C2H5C2H5C2H6C2H6C2H5C2H5C2H5C2H5C2H5C2H5
_chemical_formula_sum              "Zn4 O13 C74 N12 H76"
_cell_length_a       21.2954
_cell_length_b       21.2954
_cell_length_c       21.2954
_cell_angle_alpha    89.9109
_cell_angle_beta     90.091
_cell_angle_gamma    89.9825

_space_group_name_H-M_alt    "P 1"
_space_group_IT_number       1

loop_
  _space_group_symop_operation_xyz
  'x, y, z'

loop_
  _atom_site_type_symbol
  _atom_site_label
  _atom_site_symmetry_multiplicity
  _atom_site_fract_x
  _atom_site_fract_y
  _atom_site_fract_z
  _atom_site_occupancy
  Zn  Zn1       1.0  0.24988  0.96276  0.64369  1.0000
  Zn  Zn2       1.0  0.35529  0.96264  0.74894  1.0000
  Zn  Zn3       1.0  0.25007  0.85740  0.74898  1.0000
  Zn  Zn4       1.0  0.35515  0.85751  0.64374  1.0000
  O   O1        1.0  0.30260  0.91008  0.69634  1.0000
  O   O2        1.0  0.26385  0.05084  0.65762  1.0000
  O   O3        1.0  0.34147  0.94858  0.83703  1.0000
  O   O4        1.0  0.16195  0.87139  0.73502  1.0000
  O   O5        1.0  0.34129  0.05074  0.73494  1.0000
  O   O6        1.0  0.16182  0.94880  0.65766  1.0000
  O   O7        1.0  0.26417  0.87126  0.83707  1.0000
  O   O8        1.0  0.26403  0.76933  0.73506  1.0000
  O   O9        1.0  0.34104  0.87157  0.55564  1.0000
  O   O10       1.0  0.34123  0.76941  0.65774  1.0000
  O   O11       1.0  0.26371  0.94890  0.55561  1.0000
  O   O12       1.0  0.44336  0.94868  0.73498  1.0000
  O   O13       1.0  0.44325  0.87145  0.65770  1.0000
  C   C1        1.0  0.30263  0.74653  0.69641  1.0000
  C   C2        1.0  0.30266  0.67656  0.69643  1.0000
  C   C3        1.0  0.13841  0.91010  0.69634  1.0000
  C   C4        1.0  0.06844  0.91010  0.69634  1.0000
  C   C5        1.0  0.34291  0.64375  0.65623  1.0000
  C   C6        1.0  0.34290  0.57801  0.65620  1.0000
  C   C7        1.0  0.30264  0.54508  0.69638  1.0000
  C   C8        1.0  0.26238  0.57789  0.73659  1.0000
  C   C9        1.0  0.26239  0.64363  0.73661  1.0000
  N   N1        1.0  0.29779  0.44175  0.75144  1.0000
  N   N2        1.0  0.29778  0.37930  0.75142  1.0000
  C   C10       1.0  0.30260  0.34700  0.69632  1.0000
  N   N3        1.0  0.30743  0.37951  0.64124  1.0000
  N   N4        1.0  0.30744  0.44197  0.64126  1.0000
  C   C11       1.0  0.30262  0.47379  0.69636  1.0000
  C   C12       1.0  0.34283  0.24291  0.65608  1.0000
  C   C13       1.0  0.34281  0.17716  0.65605  1.0000
  C   C14       1.0  0.26230  0.17705  0.73645  1.0000
  C   C15       1.0  0.26231  0.24279  0.73647  1.0000
  C   C16       1.0  0.30258  0.27572  0.69629  1.0000
  C   C17       1.0  0.03552  0.86989  0.65610  1.0000
  C   C18       1.0  0.96978  0.86990  0.65609  1.0000
  C   C19       1.0  0.93696  0.91011  0.69633  1.0000
  C   C20       1.0  0.96988  0.95033  0.73657  1.0000
  C   C21       1.0  0.03562  0.95033  0.73657  1.0000
  N   N5        1.0  0.83382  0.91488  0.75143  1.0000
  N   N6        1.0  0.77137  0.91488  0.75142  1.0000
  C   C22       1.0  0.73888  0.91012  0.69632  1.0000
  N   N7        1.0  0.77121  0.90535  0.64123  1.0000
  N   N8        1.0  0.83366  0.90535  0.64123  1.0000
  C   C23       1.0  0.86567  0.91012  0.69633  1.0000
  C   C24       1.0  0.63468  0.86991  0.65607  1.0000
  C   C25       1.0  0.56893  0.86992  0.65606  1.0000
  C   C26       1.0  0.56904  0.95035  0.73655  1.0000
  C   C27       1.0  0.63478  0.95034  0.73655  1.0000
  C   C28       1.0  0.66760  0.91012  0.69632  1.0000
  C   C29       1.0  0.46615  0.91008  0.69633  1.0000
  C   C30       1.0  0.53612  0.91013  0.69630  1.0000
  C   C31       1.0  0.30234  0.91026  0.53215  1.0000
  C   C32       1.0  0.30223  0.91034  0.46218  1.0000
  C   C33       1.0  0.30256  0.07427  0.69627  1.0000
  C   C34       1.0  0.30255  0.14424  0.69623  1.0000
  C   C35       1.0  0.30281  0.90993  0.85989  1.0000
  C   C36       1.0  0.30274  0.90998  0.92986  1.0000
  C   C37       1.0  0.26276  0.86945  0.96271  1.0000
  C   C38       1.0  0.26269  0.86950  0.02846  1.0000
  C   C39       1.0  0.30262  0.91006  0.06134  1.0000
  C   C40       1.0  0.34260  0.95059  0.02848  1.0000
  C   C41       1.0  0.34267  0.95055  0.96274  1.0000
  N   N9        1.0  0.35758  0.91535  0.16469  1.0000
  N   N10       1.0  0.35752  0.91539  0.22714  1.0000
  C   C42       1.0  0.30243  0.91020  0.25942  1.0000
  N   N11       1.0  0.24740  0.90495  0.22688  1.0000
  N   N12       1.0  0.24746  0.90491  0.16442  1.0000
  C   C43       1.0  0.30255  0.91011  0.13263  1.0000
  C   C44       1.0  0.26237  0.86972  0.36356  1.0000
  C   C45       1.0  0.26230  0.86977  0.42930  1.0000
  C   C46       1.0  0.34222  0.95086  0.42932  1.0000
  C   C47       1.0  0.34228  0.95082  0.36358  1.0000
  C   C48       1.0  0.30236  0.91024  0.33070  1.0000
  H   H1        1.0  0.37570  0.67055  0.62351  1.0000
  H   H2        1.0  0.37567  0.55129  0.62346  1.0000
  C   C49       1.0  0.54855  0.83936  0.54948  1.0000
  C   C50       1.0  0.53275  0.82571  0.61183  1.0000
  H   H3        1.0  0.52621  0.81207  0.52218  1.0000
  H   H4        1.0  0.53774  0.88166  0.54025  1.0000
  H   H5        1.0  0.59240  0.83360  0.54374  1.0000
  H   H6        1.0  0.48890  0.83148  0.61758  1.0000
  H   H7        1.0  0.54355  0.78341  0.62107  1.0000
  H   H8        1.0  0.94297  0.83715  0.62333  1.0000
  H   H9        1.0  0.22959  0.55108  0.76930  1.0000
  H   H10       1.0  0.22961  0.67035  0.76935  1.0000
  H   H11       1.0  0.37562  0.26971  0.62336  1.0000
  H   H12       1.0  0.54232  0.98310  0.76931  1.0000
  C   C51       1.0  0.42121  0.03102  0.42273  1.0000
  C   C52       1.0  0.38610  0.99546  0.46546  1.0000
  H   H13       1.0  0.44830  0.05855  0.44505  1.0000
  H   H14       1.0  0.44552  0.00375  0.39722  1.0000
  H   H15       1.0  0.39362  0.05488  0.39697  1.0000
  H   H16       1.0  0.41369  0.97159  0.49122  1.0000
  H   H17       1.0  0.36179  0.02273  0.49099  1.0000
  H   H18       1.0  0.66140  0.83717  0.62330  1.0000
  C   C53       1.0  0.17784  0.86032  0.28942  1.0000
  C   C54       1.0  0.21848  0.82513  0.32741  1.0000
  H   H19       1.0  0.15074  0.83279  0.26711  1.0000
  H   H20       1.0  0.15353  0.88759  0.31495  1.0000
  H   H21       1.0  0.20167  0.88444  0.26045  1.0000
  H   H22       1.0  0.19465  0.80101  0.35639  1.0000
  H   H23       1.0  0.24279  0.79785  0.30188  1.0000
  H   H24       1.0  0.37522  0.98355  0.93599  1.0000
  C   C55       1.0  0.37800  0.98666  0.12927  1.0000
  C   C56       1.0  0.38649  0.99518  0.06462  1.0000
  H   H25       1.0  0.40510  0.01418  0.15158  1.0000
  H   H26       1.0  0.33563  0.99558  0.13991  1.0000
  H   H27       1.0  0.38752  0.94444  0.14015  1.0000
  H   H28       1.0  0.37697  0.03740  0.05374  1.0000
  H   H29       1.0  0.42887  0.98627  0.05397  1.0000
  C   C57       1.0  0.62828  0.02984  0.81611  1.0000
  C   C58       1.0  0.67097  0.99454  0.78079  1.0000
  H   H30       1.0  0.65062  0.05712  0.84342  1.0000
  H   H31       1.0  0.60259  0.05395  0.78867  1.0000
  H   H32       1.0  0.60268  0.00238  0.84019  1.0000
  H   H33       1.0  0.69657  0.02200  0.75670  1.0000
  H   H34       1.0  0.69667  0.97043  0.80823  1.0000
  C   C59       1.0  0.42241  0.18388  0.57660  1.0000
  C   C60       1.0  0.38706  0.14109  0.61186  1.0000
  H   H35       1.0  0.44973  0.16161  0.54933  1.0000
  H   H36       1.0  0.39499  0.20958  0.55249  1.0000
  H   H37       1.0  0.44649  0.20946  0.60409  1.0000
  H   H38       1.0  0.36298  0.11552  0.58438  1.0000
  H   H39       1.0  0.41448  0.11538  0.63598  1.0000
  H   H40       1.0  0.06242  0.98307  0.76934  1.0000
  C   C61       1.0  0.18333  0.78960  0.42267  1.0000
  C   C62       1.0  0.21835  0.82523  0.46542  1.0000
  H   H41       1.0  0.15620  0.76210  0.44497  1.0000
  H   H42       1.0  0.15907  0.81684  0.39691  1.0000
  H   H43       1.0  0.21097  0.76571  0.39715  1.0000
  H   H44       1.0  0.19071  0.84912  0.49093  1.0000
  H   H45       1.0  0.24261  0.79799  0.49119  1.0000
  H   H46       1.0  0.94315  0.98307  0.76933  1.0000
  C   C63       1.0  0.22656  0.07623  0.77214  1.0000
  C   C64       1.0  0.21806  0.14086  0.78064  1.0000
  H   H47       1.0  0.19925  0.05389  0.79943  1.0000
  H   H48       1.0  0.21732  0.06553  0.72983  1.0000
  H   H49       1.0  0.26886  0.06543  0.78139  1.0000
  H   H50       1.0  0.17576  0.15166  0.77137  1.0000
  H   H51       1.0  0.22729  0.15156  0.82295  1.0000
  C   C65       1.0  0.37785  0.98677  0.26281  1.0000
  C   C66       1.0  0.38623  0.99537  0.32746  1.0000
  H   H52       1.0  0.40498  0.01428  0.24052  1.0000
  H   H53       1.0  0.38740  0.94454  0.25216  1.0000
  H   H54       1.0  0.33549  0.99566  0.25192  1.0000
  H   H55       1.0  0.42858  0.98646  0.33835  1.0000
  H   H56       1.0  0.37669  0.03760  0.33812  1.0000
  C   C67       1.0  0.18273  0.23608  0.81593  1.0000
  C   C68       1.0  0.21807  0.27886  0.78067  1.0000
  H   H57       1.0  0.15542  0.25835  0.84322  1.0000
  H   H58       1.0  0.15865  0.21050  0.78846  1.0000
  H   H59       1.0  0.21016  0.21037  0.84004  1.0000
  H   H60       1.0  0.19064  0.30456  0.75655  1.0000
  H   H61       1.0  0.24216  0.30445  0.80814  1.0000
  C   C69       1.0  0.02881  0.79039  0.57655  1.0000
  C   C70       1.0  0.07159  0.82568  0.61187  1.0000
  H   H62       1.0  0.05108  0.76310  0.54924  1.0000
  H   H63       1.0  0.00322  0.76628  0.60398  1.0000
  H   H64       1.0  0.00312  0.81785  0.55246  1.0000
  H   H65       1.0  0.09728  0.79822  0.63596  1.0000
  H   H66       1.0  0.09719  0.84979  0.58443  1.0000
  C   C71       1.0  0.23291  0.76263  0.94265  1.0000
  C   C72       1.0  0.21887  0.82485  0.92658  1.0000
  H   H67       1.0  0.20581  0.73509  0.92035  1.0000
  H   H68       1.0  0.27528  0.75372  0.93200  1.0000
  H   H69       1.0  0.22716  0.75687  0.98651  1.0000
  H   H70       1.0  0.22463  0.83062  0.88272  1.0000
  H   H71       1.0  0.17650  0.83377  0.93723  1.0000
  C   C73       1.0  0.25453  0.78482  0.10256  1.0000
  C   C74       1.0  0.21875  0.82495  0.06458  1.0000
  H   H72       1.0  0.22740  0.75732  0.12487  1.0000
  H   H73       1.0  0.28215  0.76092  0.07704  1.0000
  H   H74       1.0  0.27829  0.80900  0.13155  1.0000
  H   H75       1.0  0.19498  0.80077  0.03559  1.0000
  H   H76       1.0  0.19111  0.84885  0.09011  1.0000
