data_image0
_chemical_formula_structural       O7Cu2OC12N2C4H2
_chemical_formula_sum              "O8 Cu2 C16 N2 H2"
_cell_length_a       14.5197
_cell_length_b       8.55965
_cell_length_c       12.9965
_cell_angle_alpha    90.0055
_cell_angle_beta     89.9929
_cell_angle_gamma    103.271

_space_group_name_H-M_alt    "P 1"
_space_group_IT_number       1

loop_
  _space_group_symop_operation_xyz
  'x, y, z'

loop_
  _atom_site_type_symbol
  _atom_site_label
  _atom_site_symmetry_multiplicity
  _atom_site_fract_x
  _atom_site_fract_y
  _atom_site_fract_z
  _atom_site_occupancy
  O   O1        1.0  0.96872  0.87996  0.91445  1.0000
  O   O2        1.0  0.01634  0.34503  0.91444  1.0000
  O   O3        1.0  0.85741  0.10016  0.91446  1.0000
  O   O4        1.0  0.12765  0.12482  0.91444  1.0000
  O   O5        1.0  0.85740  0.10019  0.08559  1.0000
  O   O6        1.0  0.01633  0.34505  0.08558  1.0000
  O   O7        1.0  0.96872  0.87999  0.08558  1.0000
  Cu  Cu1       1.0  0.99252  0.11252  0.10121  1.0000
  Cu  Cu2       1.0  0.99253  0.11249  0.89882  1.0000
  O   O8        1.0  0.12765  0.12485  0.08557  1.0000
  C   C1        1.0  0.01994  0.40456  0.00001  1.0000
  C   C2        1.0  0.03069  0.58191  0.00001  1.0000
  C   C3        1.0  0.82313  0.10133  0.00002  1.0000
  C   C4        1.0  0.72099  0.10477  0.00003  1.0000
  C   C5        1.0  0.96511  0.82045  0.00002  1.0000
  C   C6        1.0  0.95437  0.64310  0.00001  1.0000
  C   C7        1.0  0.34701  0.11745  1.00000  1.0000
  C   C8        1.0  0.45106  0.11393  0.00001  1.0000
  C   C9        1.0  0.53400  0.11111  0.00001  1.0000
  C   C10       1.0  0.63806  0.10759  0.00002  1.0000
  C   C11       1.0  0.16193  0.12369  0.00000  1.0000
  C   C12       1.0  0.26406  0.12024  1.00000  1.0000
  N   N1        1.0  0.99252  0.11253  0.24355  1.0000
  N   N2        1.0  0.99253  0.11247  0.75648  1.0000
  C   C13       1.0  0.99253  0.11249  0.66337  1.0000
  C   C14       1.0  0.99253  0.11251  0.54656  1.0000
  C   C15       1.0  0.99253  0.11251  0.45347  1.0000
  C   C16       1.0  0.99252  0.11253  0.33665  1.0000
  H   H1        1.0  0.88081  0.55982  0.00001  1.0000
  H   H2        1.0  0.10425  0.66520  1.00000  1.0000
