data_image0
_chemical_formula_structural       O14Zn4O2C44N2C28N2C28H2F2H2F4H2F12H2F6H4F4H6F2
_chemical_formula_sum              "O16 Zn4 C100 N4 H18 F30"
_cell_length_a       14.8536
_cell_length_b       14.8536
_cell_length_c       13.9303
_cell_angle_alpha    90.0008
_cell_angle_beta     89.9958
_cell_angle_gamma    96.3651

_space_group_name_H-M_alt    "P 1"
_space_group_IT_number       1

loop_
  _space_group_symop_operation_xyz
  'x, y, z'

loop_
  _atom_site_type_symbol
  _atom_site_label
  _atom_site_symmetry_multiplicity
  _atom_site_fract_x
  _atom_site_fract_y
  _atom_site_fract_z
  _atom_site_occupancy
  O   O1        1.0  0.19637  0.88230  0.92024  1.0000
  O   O2        1.0  0.69637  0.38230  0.42024  1.0000
  O   O3        1.0  0.93391  0.86827  0.92023  1.0000
  O   O4        1.0  0.43391  0.36828  0.42023  1.0000
  O   O5        1.0  0.07215  0.00652  0.92023  1.0000
  O   O6        1.0  0.57215  0.50652  0.42023  1.0000
  O   O7        1.0  0.05813  0.74406  0.92024  1.0000
  O   O8        1.0  0.55813  0.24406  0.42024  1.0000
  O   O9        1.0  0.07213  0.00652  0.07989  1.0000
  O   O10       1.0  0.57213  0.50652  0.57990  1.0000
  O   O11       1.0  0.93389  0.86828  0.07989  1.0000
  O   O12       1.0  0.43389  0.36828  0.57989  1.0000
  O   O13       1.0  0.19635  0.88230  0.07991  1.0000
  O   O14       1.0  0.69635  0.38230  0.57990  1.0000
  Zn  Zn1       1.0  0.06512  0.87529  0.10525  1.0000
  Zn  Zn2       1.0  0.56512  0.37529  0.60525  1.0000
  Zn  Zn3       1.0  0.06514  0.87528  0.89489  1.0000
  Zn  Zn4       1.0  0.56514  0.37528  0.39489  1.0000
  O   O15       1.0  0.05811  0.74406  0.07990  1.0000
  O   O16       1.0  0.55811  0.24406  0.57990  1.0000
  C   C1        1.0  0.90031  0.86891  0.00006  1.0000
  C   C2        1.0  0.40031  0.36891  0.50006  1.0000
  C   C3        1.0  0.80023  0.87082  0.00005  1.0000
  C   C4        1.0  0.30023  0.37082  0.50005  1.0000
  C   C5        1.0  0.38769  0.96098  0.00007  1.0000
  C   C6        1.0  0.88769  0.46098  0.50007  1.0000
  C   C7        1.0  0.36641  0.79675  0.00007  1.0000
  C   C8        1.0  0.86641  0.29675  0.50007  1.0000
  C   C9        1.0  0.46045  0.79496  0.00007  1.0000
  C   C10       1.0  0.96045  0.29496  0.50007  1.0000
  C   C11       1.0  0.51811  0.87618  0.00007  1.0000
  C   C12       1.0  0.01811  0.37618  0.50007  1.0000
  C   C13       1.0  0.48174  0.95919  0.00006  1.0000
  C   C14       1.0  0.98174  0.45919  0.50006  1.0000
  C   C15       1.0  0.49683  0.71195  0.00006  1.0000
  C   C16       1.0  0.99682  0.21195  0.50006  1.0000
  C   C17       1.0  0.59086  0.71015  0.00006  1.0000
  C   C18       1.0  0.09086  0.21015  0.50006  1.0000
  C   C19       1.0  0.64853  0.79138  0.00006  1.0000
  C   C20       1.0  0.14853  0.29138  0.50006  1.0000
  C   C21       1.0  0.61215  0.87439  0.00006  1.0000
  C   C22       1.0  0.11215  0.37439  0.50006  1.0000
  C   C23       1.0  0.66981  0.95562  0.00006  1.0000
  C   C24       1.0  0.16981  0.45562  0.50006  1.0000
  C   C25       1.0  0.63344  0.03863  0.00006  1.0000
  C   C26       1.0  0.13344  0.53863  0.50006  1.0000
  C   C27       1.0  0.53940  0.04042  0.00007  1.0000
  C   C28       1.0  0.03940  0.54042  0.50007  1.0000
  C   C29       1.0  0.74257  0.78959  0.00005  1.0000
  C   C30       1.0  0.24256  0.28959  0.50006  1.0000
  C   C31       1.0  0.76385  0.95383  0.00005  1.0000
  C   C32       1.0  0.26385  0.45383  0.50005  1.0000
  C   C33       1.0  0.07150  0.04011  0.00006  1.0000
  C   C34       1.0  0.57150  0.54011  0.50006  1.0000
  C   C35       1.0  0.06960  0.14019  0.00005  1.0000
  C   C36       1.0  0.56960  0.64019  0.50005  1.0000
  C   C37       1.0  0.22995  0.88166  0.00007  1.0000
  C   C38       1.0  0.72995  0.38166  0.50008  1.0000
  C   C39       1.0  0.33003  0.87976  0.00007  1.0000
  C   C40       1.0  0.83003  0.37976  0.50008  1.0000
  C   C41       1.0  0.05875  0.71047  0.00007  1.0000
  C   C42       1.0  0.55875  0.21047  0.50007  1.0000
  C   C43       1.0  0.06066  0.61038  0.00007  1.0000
  C   C44       1.0  0.56066  0.11038  0.50007  1.0000
  N   N1        1.0  0.06511  0.87529  0.24881  1.0000
  N   N2        1.0  0.56511  0.37529  0.74881  1.0000
  C   C45       1.0  0.97943  0.55272  0.00007  1.0000
  C   C46       1.0  0.47944  0.05272  0.50007  1.0000
  C   C47       1.0  0.14367  0.57400  0.00008  1.0000
  C   C48       1.0  0.64367  0.07400  0.50008  1.0000
  C   C49       1.0  0.14546  0.47997  0.00007  1.0000
  C   C50       1.0  0.64546  0.97997  0.50007  1.0000
  C   C51       1.0  0.06424  0.42231  0.00006  1.0000
  C   C52       1.0  0.56424  0.92231  0.50006  1.0000
  C   C53       1.0  0.98122  0.45868  0.00006  1.0000
  C   C54       1.0  0.48122  0.95868  0.50006  1.0000
  C   C55       1.0  0.22847  0.44359  0.00008  1.0000
  C   C56       1.0  0.72847  0.94359  0.50008  1.0000
  C   C57       1.0  0.23026  0.34955  0.00008  1.0000
  C   C58       1.0  0.73026  0.84955  0.50008  1.0000
  C   C59       1.0  0.14904  0.29189  0.00006  1.0000
  C   C60       1.0  0.64904  0.79189  0.50006  1.0000
  C   C61       1.0  0.06602  0.32827  0.00006  1.0000
  C   C62       1.0  0.56602  0.82827  0.50006  1.0000
  C   C63       1.0  0.98480  0.27060  0.00005  1.0000
  C   C64       1.0  0.48480  0.77060  0.50006  1.0000
  C   C65       1.0  0.90178  0.30698  0.00005  1.0000
  C   C66       1.0  0.40178  0.80698  0.50005  1.0000
  C   C67       1.0  0.90000  0.40102  0.00005  1.0000
  C   C68       1.0  0.40000  0.90102  0.50005  1.0000
  C   C69       1.0  0.15082  0.19785  0.00006  1.0000
  C   C70       1.0  0.65082  0.69785  0.50006  1.0000
  C   C71       1.0  0.98659  0.17656  0.00005  1.0000
  C   C72       1.0  0.48659  0.67656  0.50005  1.0000
  N   N3        1.0  0.06516  0.87529  0.75132  1.0000
  N   N4        1.0  0.56516  0.37529  0.25132  1.0000
  C   C73       1.0  0.00393  0.81410  0.70108  1.0000
  C   C74       1.0  0.50393  0.31410  0.20108  1.0000
  C   C75       1.0  0.12638  0.93648  0.70105  1.0000
  C   C76       1.0  0.62638  0.43648  0.20105  1.0000
  C   C77       1.0  0.12637  0.93648  0.60056  1.0000
  C   C78       1.0  0.62637  0.43648  0.10056  1.0000
  C   C79       1.0  0.06514  0.87529  0.55032  1.0000
  C   C80       1.0  0.56514  0.37529  0.05032  1.0000
  C   C81       1.0  0.00392  0.81410  0.60058  1.0000
  C   C82       1.0  0.50392  0.31410  0.10058  1.0000
  C   C83       1.0  0.18760  0.99767  0.55029  1.0000
  C   C84       1.0  0.68760  0.49767  0.05029  1.0000
  C   C85       1.0  0.18759  0.99768  0.44979  1.0000
  C   C86       1.0  0.68759  0.49768  0.94979  1.0000
  C   C87       1.0  0.12635  0.93649  0.39955  1.0000
  C   C88       1.0  0.62635  0.43649  0.89955  1.0000
  C   C89       1.0  0.06513  0.87529  0.44981  1.0000
  C   C90       1.0  0.56513  0.37529  0.94981  1.0000
  C   C91       1.0  0.00389  0.81410  0.39957  1.0000
  C   C92       1.0  0.50389  0.31410  0.89958  1.0000
  C   C93       1.0  0.94266  0.75290  0.44983  1.0000
  C   C94       1.0  0.44266  0.25290  0.94983  1.0000
  C   C95       1.0  0.94268  0.75291  0.55033  1.0000
  C   C96       1.0  0.44268  0.25291  0.05033  1.0000
  C   C97       1.0  0.12634  0.93648  0.29905  1.0000
  C   C98       1.0  0.62634  0.43649  0.79905  1.0000
  C   C99       1.0  0.00388  0.81410  0.29907  1.0000
  C   C100      1.0  0.50388  0.31410  0.79907  1.0000
  H   H1        1.0  0.31946  0.73062  0.00007  1.0000
  H   H2        1.0  0.81946  0.23062  0.50007  1.0000
  F   F1        1.0  0.93871  0.74897  0.24561  1.0000
  F   F2        1.0  0.43871  0.24897  0.74561  1.0000
  H   H3        1.0  0.44987  0.64582  0.00005  1.0000
  H   H4        1.0  0.94987  0.14582  0.50005  1.0000
  F   F3        1.0  0.82522  0.04028  0.00005  1.0000
  F   F4        1.0  0.32522  0.54028  0.50005  1.0000
  F   F5        1.0  0.62957  0.62180  0.00005  1.0000
  F   F6        1.0  0.12957  0.12180  0.50005  1.0000
  H   H5        1.0  0.29460  0.49055  0.00009  1.0000
  H   H6        1.0  0.79460  0.99055  0.50009  1.0000
  F   F7        1.0  0.87750  0.68777  0.39636  1.0000
  F   F8        1.0  0.37750  0.18777  0.89636  1.0000
  F   F9        1.0  0.69482  0.12507  0.00005  1.0000
  F   F10       1.0  0.19481  0.62507  0.50005  1.0000
  F   F11       1.0  0.89109  0.59144  0.00005  1.0000
  F   F12       1.0  0.39109  0.09144  0.50005  1.0000
  F   F13       1.0  0.25277  0.06279  0.60376  1.0000
  F   F14       1.0  0.75277  0.56279  0.10376  1.0000
  F   F15       1.0  0.23011  0.63537  0.00010  1.0000
  F   F16       1.0  0.73011  0.13537  0.50010  1.0000
  F   F17       1.0  0.34898  0.04933  0.00008  1.0000
  F   F18       1.0  0.84898  0.54933  0.50008  1.0000
  H   H7        1.0  0.17620  0.98630  0.25814  1.0000
  H   H8        1.0  0.67620  0.48630  0.75814  1.0000
  F   F19       1.0  0.25275  0.06280  0.39631  1.0000
  F   F20       1.0  0.75275  0.56280  0.89631  1.0000
  F   F21       1.0  0.78128  0.70125  0.00004  1.0000
  F   F22       1.0  0.28127  0.20125  0.50004  1.0000
  F   F23       1.0  0.87752  0.68778  0.60383  1.0000
  F   F24       1.0  0.37752  0.18778  0.10383  1.0000
  H   H9        1.0  0.83565  0.26002  0.00005  1.0000
  H   H10       1.0  0.33565  0.76002  0.50005  1.0000
  H   H11       1.0  0.95407  0.76428  0.74201  1.0000
  H   H12       1.0  0.45407  0.26428  0.24200  1.0000
  F   F25       1.0  0.81165  0.43974  0.00004  1.0000
  F   F26       1.0  0.31165  0.93974  0.50004  1.0000
  F   F27       1.0  0.50068  0.12876  0.00007  1.0000
  F   F28       1.0  0.00068  0.62876  0.50007  1.0000
  H   H13       1.0  0.21841  0.16824  0.00007  1.0000
  H   H14       1.0  0.71841  0.66824  0.50007  1.0000
  H   H15       1.0  0.17624  0.98630  0.74196  1.0000
  H   H16       1.0  0.67624  0.48630  0.24196  1.0000
  H   H17       1.0  0.92045  0.12962  0.00004  1.0000
  H   H18       1.0  0.42045  0.62962  0.50004  1.0000
  F   F29       1.0  0.31862  0.31085  0.00007  1.0000
  F   F30       1.0  0.81862  0.81085  0.50007  1.0000
