data_image0
_chemical_formula_structural       O7Cu2OC6NC2NO7Cu2OC6NC2N
_chemical_formula_sum              "O16 Cu4 C16 N4"
_cell_length_a       9.06522
_cell_length_b       9.06522
_cell_length_c       15.0807
_cell_angle_alpha    89.9963
_cell_angle_beta     90.0001
_cell_angle_gamma    85.0153

_space_group_name_H-M_alt    "P 1"
_space_group_IT_number       1

loop_
  _space_group_symop_operation_xyz
  'x, y, z'

loop_
  _atom_site_type_symbol
  _atom_site_label
  _atom_site_symmetry_multiplicity
  _atom_site_fract_x
  _atom_site_fract_y
  _atom_site_fract_z
  _atom_site_occupancy
  O   O1        1.0  0.03960  0.78366  0.07373  1.0000
  O   O2        1.0  0.46889  0.76591  0.07373  1.0000
  O   O3        1.0  0.24537  0.98943  0.07373  1.0000
  O   O4        1.0  0.26312  0.56014  0.07373  1.0000
  O   O5        1.0  0.24538  0.98944  0.42624  1.0000
  O   O6        1.0  0.46889  0.76592  0.42625  1.0000
  O   O7        1.0  0.03961  0.78367  0.42624  1.0000
  Cu  Cu1       1.0  0.25425  0.77480  0.41278  1.0000
  Cu  Cu2       1.0  0.25425  0.77478  0.08719  1.0000
  O   O8        1.0  0.26312  0.56015  0.42625  1.0000
  C   C1        1.0  0.52388  0.76762  0.49999  1.0000
  C   C2        1.0  0.68772  0.77272  0.49999  1.0000
  C   C3        1.0  0.24708  0.04442  0.49999  1.0000
  C   C4        1.0  0.25218  0.20826  0.49999  1.0000
  C   C5        1.0  0.98462  0.78196  0.49999  1.0000
  C   C6        1.0  0.82078  0.77686  0.49999  1.0000
  N   N1        1.0  0.25424  0.77479  0.20987  1.0000
  C   C7        1.0  0.26142  0.50516  0.49999  1.0000
  C   C8        1.0  0.25632  0.34132  0.49999  1.0000
  N   N2        1.0  0.25424  0.77481  0.29011  1.0000
  O   O9        1.0  0.03960  0.78366  0.57373  1.0000
  O   O10       1.0  0.46889  0.76591  0.57373  1.0000
  O   O11       1.0  0.24537  0.98943  0.57373  1.0000
  O   O12       1.0  0.26312  0.56014  0.57373  1.0000
  O   O13       1.0  0.24538  0.98944  0.92624  1.0000
  O   O14       1.0  0.46889  0.76592  0.92625  1.0000
  O   O15       1.0  0.03961  0.78367  0.92624  1.0000
  Cu  Cu3       1.0  0.25425  0.77480  0.91278  1.0000
  Cu  Cu4       1.0  0.25425  0.77478  0.58719  1.0000
  O   O16       1.0  0.26312  0.56015  0.92625  1.0000
  C   C9        1.0  0.52388  0.76762  0.99999  1.0000
  C   C10       1.0  0.68772  0.77272  0.99999  1.0000
  C   C11       1.0  0.24708  0.04442  0.99999  1.0000
  C   C12       1.0  0.25218  0.20826  0.99999  1.0000
  C   C13       1.0  0.98462  0.78196  0.99999  1.0000
  C   C14       1.0  0.82078  0.77686  0.99999  1.0000
  N   N3        1.0  0.25424  0.77479  0.70987  1.0000
  C   C15       1.0  0.26142  0.50516  0.99999  1.0000
  C   C16       1.0  0.25632  0.34132  0.99999  1.0000
  N   N4        1.0  0.25424  0.77481  0.79011  1.0000
