data_image0
_chemical_formula_structural       Zn4O13C14N2C26N2C2H5Br6H3Br3HBrH2Br4H3
_chemical_formula_sum              "Zn4 O13 C42 N4 H14 Br14"
_cell_length_a       19.0771
_cell_length_b       18.1014
_cell_length_c       19.0769
_cell_angle_alpha    92.2723
_cell_angle_beta     90.0762
_cell_angle_gamma    87.7275

_space_group_name_H-M_alt    "P 1"
_space_group_IT_number       1

loop_
  _space_group_symop_operation_xyz
  'x, y, z'

loop_
  _atom_site_type_symbol
  _atom_site_label
  _atom_site_symmetry_multiplicity
  _atom_site_fract_x
  _atom_site_fract_y
  _atom_site_fract_z
  _atom_site_occupancy
  Zn  Zn1       1.0  0.05823  0.64173  0.55958  1.0000
  Zn  Zn2       1.0  0.06286  0.52266  0.67708  1.0000
  Zn  Zn3       1.0  0.94545  0.65165  0.68179  1.0000
  Zn  Zn4       1.0  0.94068  0.52310  0.56433  1.0000
  O   O1        1.0  0.00180  0.58478  0.62069  1.0000
  O   O2        1.0  0.15718  0.62160  0.57121  1.0000
  O   O3        1.0  0.05122  0.54373  0.77604  1.0000
  O   O4        1.0  0.96047  0.75396  0.66555  1.0000
  O   O5        1.0  0.16057  0.53411  0.65754  1.0000
  O   O6        1.0  0.04333  0.74667  0.57577  1.0000
  O   O7        1.0  0.96496  0.63850  0.77949  1.0000
  O   O8        1.0  0.84649  0.63894  0.67016  1.0000
  O   O9        1.0  0.95234  0.53487  0.46537  1.0000
  O   O10       1.0  0.84298  0.54449  0.58387  1.0000
  O   O11       1.0  0.03870  0.62203  0.46188  1.0000
  O   O12       1.0  0.04659  0.41909  0.66215  1.0000
  O   O13       1.0  0.95683  0.41941  0.57931  1.0000
  C   C1        1.0  0.81924  0.59284  0.62804  1.0000
  C   C2        1.0  0.74113  0.59627  0.63117  1.0000
  C   C3        1.0  0.00171  0.39238  0.62072  1.0000
  C   C4        1.0  0.00174  0.31006  0.62070  1.0000
  C   C5        1.0  0.70264  0.54864  0.58778  1.0000
  C   C6        1.0  0.62925  0.55187  0.59071  1.0000
  C   C7        1.0  0.59436  0.60272  0.63704  1.0000
  C   C8        1.0  0.63286  0.65036  0.68043  1.0000
  C   C9        1.0  0.70625  0.64713  0.67749  1.0000
  C   C10       1.0  0.37507  0.61766  0.65063  1.0000
  C   C11       1.0  0.30168  0.62088  0.65357  1.0000
  C   C12       1.0  0.29808  0.52239  0.56385  1.0000
  C   C13       1.0  0.37146  0.51916  0.56092  1.0000
  C   C14       1.0  0.40996  0.56680  0.60431  1.0000
  N   N1        1.0  0.51935  0.60603  0.64004  1.0000
  N   N2        1.0  0.48497  0.56350  0.60130  1.0000
  C   C15       1.0  0.00189  0.01096  0.62066  1.0000
  C   C16       1.0  0.94553  0.04245  0.56840  1.0000
  C   C17       1.0  0.94528  0.12809  0.56858  1.0000
  C   C18       1.0  0.00181  0.15935  0.62068  1.0000
  C   C19       1.0  0.98474  0.13209  0.69554  1.0000
  C   C20       1.0  0.98438  0.04645  0.69523  1.0000
  C   C21       1.0  0.07546  0.03858  0.59871  1.0000
  C   C22       1.0  0.07496  0.12418  0.59710  1.0000
  C   C23       1.0  0.00177  0.24321  0.62070  1.0000
  C   C24       1.0  0.00193  0.92710  0.62065  1.0000
  C   C25       1.0  0.18508  0.57670  0.61332  1.0000
  C   C26       1.0  0.26319  0.57325  0.61018  1.0000
  C   C27       1.0  0.99447  0.57739  0.43741  1.0000
  C   C28       1.0  0.99135  0.57425  0.35931  1.0000
  C   C29       1.0  0.00192  0.77794  0.62065  1.0000
  C   C30       1.0  0.00196  0.86025  0.62064  1.0000
  C   C31       1.0  0.03485  0.61814  0.32080  1.0000
  C   C32       1.0  0.03190  0.61518  0.24741  1.0000
  C   C33       1.0  0.98547  0.56833  0.21254  1.0000
  C   C34       1.0  0.94197  0.52443  0.25106  1.0000
  C   C35       1.0  0.94491  0.52739  0.32444  1.0000
  C   C36       1.0  0.97185  0.55461  0.99326  1.0000
  C   C37       1.0  0.96891  0.55165  0.91987  1.0000
  C   C38       1.0  0.05885  0.64241  0.91623  1.0000
  C   C39       1.0  0.06179  0.64536  0.98962  1.0000
  C   C40       1.0  0.01828  0.60147  0.02813  1.0000
  N   N3        1.0  0.98246  0.56530  0.13753  1.0000
  N   N4        1.0  0.02129  0.60450  0.10314  1.0000
  C   C41       1.0  0.00915  0.59220  0.80326  1.0000
  C   C42       1.0  0.01241  0.59555  0.88136  1.0000
  H   H1        1.0  0.73104  0.50722  0.55006  1.0000
  H   H2        1.0  0.39986  0.47775  0.52320  1.0000
  H   H3        1.0  0.11893  0.14521  0.63215  1.0000
  H   H4        1.0  0.02463  0.15247  0.73567  1.0000
  H   H5        1.0  0.09160  0.01407  0.54489  1.0000
  Br  Br1       1.0  0.88587  0.46782  0.37671  1.0000
  Br  Br2       1.0  0.09651  0.15332  0.50525  1.0000
  Br  Br3       1.0  0.89623  0.17278  0.72640  1.0000
  Br  Br4       1.0  0.90588  0.48806  0.87254  1.0000
  Br  Br5       1.0  0.05009  0.01198  0.76261  1.0000
  Br  Br6       1.0  0.14538  0.00453  0.66207  1.0000
  H   H6        1.0  0.60445  0.69177  0.71815  1.0000
  H   H7        1.0  0.73759  0.68592  0.71282  1.0000
  H   H8        1.0  0.09960  0.68351  0.01800  1.0000
  Br  Br7       1.0  0.57701  0.48723  0.53182  1.0000
  Br  Br8       1.0  0.87894  0.46085  0.20373  1.0000
  Br  Br9       1.0  0.09787  0.68173  0.36812  1.0000
  H   H9        1.0  0.26672  0.48361  0.52852  1.0000
  Br  Br10      1.0  0.96250  0.15856  0.47622  1.0000
  H   H10       1.0  0.93643  0.51886  0.02461  1.0000
  H   H11       1.0  0.09426  0.67814  0.88487  1.0000
  Br  Br11      1.0  0.42731  0.68231  0.70951  1.0000
  Br  Br12      1.0  0.96253  0.00357  0.47575  1.0000
  Br  Br13      1.0  0.25434  0.68990  0.71645  1.0000
  Br  Br14      1.0  0.09097  0.67472  0.19515  1.0000
  H   H12       1.0  0.89069  0.15145  0.58336  1.0000
  H   H13       1.0  0.89127  0.02378  0.58301  1.0000
  H   H14       1.0  0.93069  0.02945  0.71348  1.0000
