data_image0
_chemical_formula_structural       Zn4O13C12N2C22N2C2H2OC2H6OC2H5OC2H7OC2H5OC2H6OC2H7OC2H6
_chemical_formula_sum              "Zn4 O20 C50 N4 H44"
_cell_length_a       19.0771
_cell_length_b       16.6255
_cell_length_c       19.0769
_cell_angle_alpha    92.2721
_cell_angle_beta     90.0769
_cell_angle_gamma    87.7219

_space_group_name_H-M_alt    "P 1"
_space_group_IT_number       1

loop_
  _space_group_symop_operation_xyz
  'x, y, z'

loop_
  _atom_site_type_symbol
  _atom_site_label
  _atom_site_symmetry_multiplicity
  _atom_site_fract_x
  _atom_site_fract_y
  _atom_site_fract_z
  _atom_site_occupancy
  Zn  Zn1       1.0  0.05826  0.60992  0.55959  1.0000
  Zn  Zn2       1.0  0.06290  0.48028  0.67710  1.0000
  Zn  Zn3       1.0  0.94548  0.62072  0.68180  1.0000
  Zn  Zn4       1.0  0.94072  0.48077  0.56434  1.0000
  O   O1        1.0  0.00184  0.54792  0.62071  1.0000
  O   O2        1.0  0.15721  0.58800  0.57123  1.0000
  O   O3        1.0  0.05126  0.50323  0.77605  1.0000
  O   O4        1.0  0.96049  0.73212  0.66557  1.0000
  O   O5        1.0  0.16062  0.49275  0.65756  1.0000
  O   O6        1.0  0.04335  0.72419  0.57578  1.0000
  O   O7        1.0  0.96499  0.60641  0.77951  1.0000
  O   O8        1.0  0.84652  0.60688  0.67017  1.0000
  O   O9        1.0  0.95238  0.49358  0.46538  1.0000
  O   O10       1.0  0.84302  0.50406  0.58388  1.0000
  O   O11       1.0  0.03874  0.58847  0.46189  1.0000
  O   O12       1.0  0.04664  0.36752  0.66216  1.0000
  O   O13       1.0  0.95688  0.36787  0.57932  1.0000
  C   C1        1.0  0.81927  0.55669  0.62805  1.0000
  C   C2        1.0  0.74117  0.56043  0.63118  1.0000
  C   C3        1.0  0.30172  0.58722  0.65358  1.0000
  C   C4        1.0  0.37511  0.58371  0.65064  1.0000
  C   C5        1.0  0.41000  0.52834  0.60432  1.0000
  C   C6        1.0  0.37150  0.47648  0.56093  1.0000
  C   C7        1.0  0.29811  0.48000  0.56386  1.0000
  C   C8        1.0  0.62928  0.51208  0.59072  1.0000
  C   C9        1.0  0.70268  0.50857  0.58779  1.0000
  C   C10       1.0  0.70628  0.61580  0.67751  1.0000
  C   C11       1.0  0.63289  0.61931  0.68044  1.0000
  C   C12       1.0  0.59440  0.56745  0.63705  1.0000
  N   N1        1.0  0.48501  0.52475  0.60131  1.0000
  N   N2        1.0  0.51939  0.57105  0.64005  1.0000
  C   C13       1.0  0.00177  0.33844  0.62073  1.0000
  C   C14       1.0  0.00180  0.24881  0.62072  1.0000
  C   C15       1.0  0.00182  0.17603  0.62070  1.0000
  C   C16       1.0  0.00187  0.08472  0.62069  1.0000
  C   C17       1.0  0.00190  0.01194  0.62068  1.0000
  C   C18       1.0  0.00194  0.92062  0.62066  1.0000
  C   C19       1.0  0.18512  0.53912  0.61334  1.0000
  C   C20       1.0  0.26323  0.53537  0.61020  1.0000
  C   C21       1.0  0.99451  0.53988  0.43743  1.0000
  C   C22       1.0  0.99139  0.53645  0.35933  1.0000
  C   C23       1.0  0.00194  0.75823  0.62067  1.0000
  C   C24       1.0  0.00198  0.84784  0.62065  1.0000
  C   C25       1.0  0.03488  0.58424  0.32081  1.0000
  C   C26       1.0  0.03194  0.58102  0.24743  1.0000
  C   C27       1.0  0.98551  0.53001  0.21256  1.0000
  C   C28       1.0  0.94201  0.48221  0.25107  1.0000
  C   C29       1.0  0.94495  0.48544  0.32446  1.0000
  C   C30       1.0  0.97189  0.51507  0.99327  1.0000
  C   C31       1.0  0.96895  0.51185  0.91988  1.0000
  C   C32       1.0  0.05888  0.61066  0.91624  1.0000
  C   C33       1.0  0.06182  0.61388  0.98963  1.0000
  C   C34       1.0  0.01832  0.56609  0.02814  1.0000
  N   N3        1.0  0.98250  0.52672  0.13754  1.0000
  N   N4        1.0  0.02132  0.56939  0.10315  1.0000
  C   C35       1.0  0.00918  0.55600  0.80327  1.0000
  C   C36       1.0  0.01244  0.55965  0.88137  1.0000
  H   H1        1.0  0.73108  0.46348  0.55006  1.0000
  H   H2        1.0  0.40645  0.62594  0.68598  1.0000
  O   O14       1.0  0.10681  0.66351  0.02357  1.0000
  C   C37       1.0  0.11958  0.77564  0.10595  1.0000
  C   C38       1.0  0.06856  0.71945  0.06758  1.0000
  H   H3        1.0  0.08867  0.82089  0.14152  1.0000
  H   H4        1.0  0.15769  0.73845  0.13889  1.0000
  H   H5        1.0  0.15015  0.80920  0.06578  1.0000
  H   H6        1.0  0.03793  0.68587  0.10769  1.0000
  H   H7        1.0  0.03049  0.75668  0.03462  1.0000
  H   H8        1.0  0.09429  0.64957  0.88488  1.0000
  O   O15       1.0  0.92394  0.46221  0.88597  1.0000
  C   C39       1.0  0.91110  0.35022  0.80347  1.0000
  C   C40       1.0  0.96216  0.40636  0.84185  1.0000
  H   H9        1.0  0.94198  0.30505  0.76778  1.0000
  H   H10       1.0  0.88052  0.31655  0.84357  1.0000
  H   H11       1.0  0.87300  0.38752  0.77062  1.0000
  H   H12       1.0  0.00030  0.36911  0.87470  1.0000
  H   H13       1.0  0.99269  0.44003  0.80172  1.0000
  O   O16       1.0  0.90273  0.43909  0.36198  1.0000
  C   C41       1.0  0.86743  0.40023  0.47664  1.0000
  C   C42       1.0  0.91528  0.45277  0.43424  1.0000
  H   H14       1.0  0.87757  0.41126  0.53508  1.0000
  H   H15       1.0  0.81019  0.41648  0.46455  1.0000
  H   H16       1.0  0.87915  0.33400  0.46169  1.0000
  H   H17       1.0  0.90362  0.51902  0.44917  1.0000
  H   H18       1.0  0.97251  0.43645  0.44634  1.0000
  H   H19       1.0  0.93648  0.47615  0.02462  1.0000
  H   H20       1.0  0.39992  0.43140  0.52320  1.0000
  O   O17       1.0  0.26079  0.42966  0.52161  1.0000
  C   C43       1.0  0.23353  0.38618  0.40304  1.0000
  C   C44       1.0  0.27586  0.44321  0.45081  1.0000
  H   H21       1.0  0.24569  0.39713  0.34579  1.0000
  H   H22       1.0  0.24844  0.32102  0.41484  1.0000
  H   H23       1.0  0.17510  0.39819  0.41313  1.0000
  H   H24       1.0  0.33431  0.43127  0.44075  1.0000
  H   H25       1.0  0.26089  0.50835  0.43900  1.0000
  O   O18       1.0  0.59910  0.67306  0.72555  1.0000
  C   C45       1.0  0.58145  0.71868  0.84594  1.0000
  C   C46       1.0  0.61976  0.65777  0.79491  1.0000
  H   H26       1.0  0.59813  0.70633  0.90203  1.0000
  H   H27       1.0  0.59543  0.78245  0.83298  1.0000
  H   H28       1.0  0.52238  0.71232  0.84057  1.0000
  H   H29       1.0  0.67883  0.66406  0.80025  1.0000
  H   H30       1.0  0.60572  0.59403  0.80788  1.0000
  H   H31       1.0  0.73763  0.65802  0.71283  1.0000
  O   O19       1.0  0.89696  0.43268  0.21709  1.0000
  C   C47       1.0  0.85255  0.38396  0.10565  1.0000
  C   C48       1.0  0.90361  0.44008  0.14405  1.0000
  H   H32       1.0  0.85789  0.38993  0.04659  1.0000
  H   H33       1.0  0.86544  0.31896  0.11955  1.0000
  H   H34       1.0  0.79648  0.40147  0.12240  1.0000
  H   H35       1.0  0.95969  0.42264  0.12732  1.0000
  H   H36       1.0  0.89066  0.50506  0.13015  1.0000
  H   H37       1.0  0.27332  0.63231  0.69131  1.0000
  H   H38       1.0  0.07269  0.62578  0.34920  1.0000
  O   O20       1.0  0.59201  0.46161  0.54855  1.0000
  C   C49       1.0  0.59619  0.35489  0.45925  1.0000
  C   C50       1.0  0.63849  0.41199  0.50697  1.0000
  H   H39       1.0  0.63375  0.31477  0.42561  1.0000
  H   H40       1.0  0.56312  0.31580  0.49293  1.0000
  H   H41       1.0  0.56036  0.39187  0.42385  1.0000
  H   H42       1.0  0.67436  0.37508  0.54238  1.0000
  H   H43       1.0  0.67151  0.45108  0.47325  1.0000
  H   H44       1.0  0.06735  0.61994  0.21607  1.0000
