data_image0
_chemical_formula_structural       O14Cu4O2C40N4C20H10Cl2H8Cl4H4Cl2H4Cl6
_chemical_formula_sum              "O16 Cu4 C60 N4 H26 Cl14"
_cell_length_a       14.9715
_cell_length_b       10.9678
_cell_length_c       13.4483
_cell_angle_alpha    77.8655
_cell_angle_beta     89.9938
_cell_angle_gamma    84.1738

_space_group_name_H-M_alt    "P 1"
_space_group_IT_number       1

loop_
  _space_group_symop_operation_xyz
  'x, y, z'

loop_
  _atom_site_type_symbol
  _atom_site_label
  _atom_site_symmetry_multiplicity
  _atom_site_fract_x
  _atom_site_fract_y
  _atom_site_fract_z
  _atom_site_occupancy
  O   O1        1.0  0.18782  0.16260  0.88946  1.0000
  O   O2        1.0  0.68783  0.66260  0.38946  1.0000
  O   O3        1.0  0.92753  0.18208  0.88612  1.0000
  O   O4        1.0  0.42753  0.68208  0.38612  1.0000
  O   O5        1.0  0.06368  0.99069  0.91892  1.0000
  O   O6        1.0  0.56368  0.49069  0.41892  1.0000
  O   O7        1.0  0.05168  0.35398  0.85666  1.0000
  O   O8        1.0  0.55168  0.85398  0.35666  1.0000
  O   O9        1.0  0.06366  0.99068  0.08431  1.0000
  O   O10       1.0  0.56366  0.49068  0.58431  1.0000
  O   O11       1.0  0.92751  0.18206  0.05150  1.0000
  O   O12       1.0  0.42751  0.68206  0.55150  1.0000
  O   O13       1.0  0.18781  0.16259  0.05485  1.0000
  O   O14       1.0  0.68781  0.66259  0.55485  1.0000
  Cu  Cu1       1.0  0.05766  0.17232  0.06828  1.0000
  Cu  Cu2       1.0  0.55766  0.67232  0.56828  1.0000
  Cu  Cu3       1.0  0.05768  0.17234  0.87269  1.0000
  Cu  Cu4       1.0  0.55768  0.67234  0.37269  1.0000
  O   O15       1.0  0.05166  0.35397  0.02205  1.0000
  O   O16       1.0  0.55166  0.85397  0.52205  1.0000
  C   C1        1.0  0.89419  0.18120  0.96896  1.0000
  C   C2        1.0  0.39419  0.68120  0.46896  1.0000
  C   C3        1.0  0.79488  0.17859  0.96940  1.0000
  C   C4        1.0  0.29488  0.67859  0.46941  1.0000
  C   C5        1.0  0.74822  0.17736  0.05977  1.0000
  C   C6        1.0  0.24822  0.67736  0.55977  1.0000
  C   C7        1.0  0.65491  0.17489  0.06019  1.0000
  C   C8        1.0  0.15491  0.67489  0.56019  1.0000
  C   C9        1.0  0.60826  0.17366  0.97025  1.0000
  C   C10       1.0  0.10826  0.67366  0.47025  1.0000
  C   C11       1.0  0.65493  0.17489  0.87988  1.0000
  C   C12       1.0  0.15493  0.67489  0.37988  1.0000
  C   C13       1.0  0.74824  0.17735  0.87946  1.0000
  C   C14       1.0  0.24824  0.67735  0.37946  1.0000
  C   C15       1.0  0.46044  0.16976  0.88077  1.0000
  C   C16       1.0  0.96044  0.66976  0.38077  1.0000
  C   C17       1.0  0.36712  0.16730  0.88119  1.0000
  C   C18       1.0  0.86712  0.66730  0.38119  1.0000
  C   C19       1.0  0.36711  0.16730  0.06150  1.0000
  C   C20       1.0  0.86711  0.66730  0.56150  1.0000
  C   C21       1.0  0.46042  0.16976  0.06108  1.0000
  C   C22       1.0  0.96042  0.66976  0.56108  1.0000
  C   C23       1.0  0.50708  0.17099  0.97071  1.0000
  C   C24       1.0  0.00708  0.67099  0.47071  1.0000
  C   C25       1.0  0.06280  0.94420  0.00958  1.0000
  C   C26       1.0  0.56280  0.44420  0.50958  1.0000
  C   C27       1.0  0.06018  0.80567  0.03331  1.0000
  C   C28       1.0  0.56018  0.30567  0.53331  1.0000
  C   C29       1.0  0.05902  0.74392  0.95822  1.0000
  C   C30       1.0  0.55902  0.24392  0.45822  1.0000
  C   C31       1.0  0.05632  0.60074  0.98275  1.0000
  C   C32       1.0  0.55632  0.10074  0.48275  1.0000
  C   C33       1.0  0.22115  0.16346  0.97200  1.0000
  C   C34       1.0  0.72115  0.66346  0.47200  1.0000
  C   C35       1.0  0.32046  0.16607  0.97155  1.0000
  C   C36       1.0  0.82046  0.66607  0.47155  1.0000
  C   C37       1.0  0.05254  0.40047  0.93139  1.0000
  C   C38       1.0  0.55254  0.90047  0.43139  1.0000
  C   C39       1.0  0.05516  0.53900  0.90764  1.0000
  C   C40       1.0  0.55516  0.03900  0.40764  1.0000
  N   N1        1.0  0.05765  0.17231  0.20584  1.0000
  N   N2        1.0  0.55765  0.67231  0.70584  1.0000
  N   N3        1.0  0.05769  0.17234  0.73512  1.0000
  N   N4        1.0  0.55769  0.67234  0.23512  1.0000
  C   C41       1.0  0.11796  0.08761  0.27240  1.0000
  C   C42       1.0  0.61796  0.58761  0.77240  1.0000
  C   C43       1.0  0.11796  0.08760  0.37651  1.0000
  C   C44       1.0  0.61796  0.58760  0.87650  1.0000
  C   C45       1.0  0.05767  0.17232  0.41405  1.0000
  C   C46       1.0  0.55767  0.67232  0.91405  1.0000
  C   C47       1.0  0.99735  0.25703  0.34748  1.0000
  C   C48       1.0  0.49735  0.75703  0.84748  1.0000
  C   C49       1.0  0.99734  0.25703  0.24338  1.0000
  C   C50       1.0  0.49734  0.75703  0.74338  1.0000
  C   C51       1.0  0.99738  0.25704  0.56446  1.0000
  C   C52       1.0  0.49738  0.75704  0.06446  1.0000
  C   C53       1.0  0.99739  0.25705  0.66856  1.0000
  C   C54       1.0  0.49739  0.75705  0.16857  1.0000
  C   C55       1.0  0.11800  0.08762  0.69758  1.0000
  C   C56       1.0  0.61800  0.58762  0.19758  1.0000
  C   C57       1.0  0.11799  0.08761  0.59348  1.0000
  C   C58       1.0  0.61799  0.58761  0.09348  1.0000
  C   C59       1.0  0.05768  0.17233  0.52692  1.0000
  C   C60       1.0  0.55768  0.67233  0.02692  1.0000
  H   H1        1.0  0.49840  0.17077  0.13431  1.0000
  H   H2        1.0  0.99840  0.67077  0.63431  1.0000
  H   H3        1.0  0.78623  0.17836  0.80588  1.0000
  H   H4        1.0  0.28623  0.67836  0.30588  1.0000
  H   H5        1.0  0.94825  0.32600  0.37805  1.0000
  H   H6        1.0  0.44825  0.82600  0.87805  1.0000
  H   H7        1.0  0.05616  0.59212  0.82519  1.0000
  H   H8        1.0  0.55616  0.09212  0.32519  1.0000
  H   H9        1.0  0.94824  0.32600  0.18919  1.0000
  H   H10       1.0  0.44824  0.82600  0.68919  1.0000
  Cl  Cl1       1.0  0.19378  0.98111  0.46018  1.0000
  Cl  Cl2       1.0  0.69378  0.48111  0.96018  1.0000
  H   H11       1.0  0.05916  0.75253  0.11576  1.0000
  H   H12       1.0  0.55916  0.25254  0.61576  1.0000
  H   H13       1.0  0.16706  0.01862  0.24184  1.0000
  H   H14       1.0  0.66706  0.51863  0.74184  1.0000
  H   H15       1.0  0.16709  0.01864  0.56292  1.0000
  H   H16       1.0  0.66709  0.51864  0.06292  1.0000
  H   H17       1.0  0.16710  0.01864  0.75178  1.0000
  H   H18       1.0  0.66710  0.51864  0.25178  1.0000
  Cl  Cl3       1.0  0.92158  0.36355  0.71575  1.0000
  Cl  Cl4       1.0  0.42158  0.86355  0.21575  1.0000
  Cl  Cl5       1.0  0.92155  0.36354  0.48079  1.0000
  Cl  Cl6       1.0  0.42155  0.86354  0.98079  1.0000
  H   H19       1.0  0.06003  0.79705  0.87577  1.0000
  H   H20       1.0  0.56003  0.29705  0.37577  1.0000
  H   H21       1.0  0.32914  0.16631  0.80795  1.0000
  H   H22       1.0  0.82914  0.66631  0.30795  1.0000
  Cl  Cl7       1.0  0.80685  0.17891  0.17284  1.0000
  Cl  Cl8       1.0  0.30686  0.67891  0.67284  1.0000
  H   H23       1.0  0.61692  0.17386  0.13378  1.0000
  H   H24       1.0  0.11692  0.67386  0.63378  1.0000
  H   H25       1.0  0.32911  0.16629  0.13508  1.0000
  H   H26       1.0  0.82911  0.66629  0.63508  1.0000
  Cl  Cl9       1.0  0.59628  0.17330  0.76682  1.0000
  Cl  Cl10      1.0  0.09628  0.67330  0.26682  1.0000
  Cl  Cl11      1.0  0.05475  0.51872  0.11006  1.0000
  Cl  Cl12      1.0  0.55475  0.01872  0.61006  1.0000
  Cl  Cl13      1.0  0.51909  0.17131  0.76716  1.0000
  Cl  Cl14      1.0  0.01909  0.67131  0.26716  1.0000
