data_image0
_chemical_formula_structural       O14Cu4O2C60N4C24H6C4H10C4H10C4H10C4H10C4H12C4H10C4H16C4H10C4H14C4H10C4H12C4H10
_chemical_formula_sum              "O16 Cu4 C132 N4 H140"
_cell_length_a       17.6991
_cell_length_b       15.9445
_cell_length_c       16.1763
_cell_angle_alpha    89.9991
_cell_angle_beta     89.9986
_cell_angle_gamma    83.379

_space_group_name_H-M_alt    "P 1"
_space_group_IT_number       1

loop_
  _space_group_symop_operation_xyz
  'x, y, z'

loop_
  _atom_site_type_symbol
  _atom_site_label
  _atom_site_symmetry_multiplicity
  _atom_site_fract_x
  _atom_site_fract_y
  _atom_site_fract_z
  _atom_site_occupancy
  O   O1        1.0  0.00424  0.10622  0.93138  1.0000
  O   O2        1.0  0.50424  0.60623  0.43138  1.0000
  O   O3        1.0  0.78388  0.12004  0.93135  1.0000
  O   O4        1.0  0.28388  0.62004  0.43135  1.0000
  O   O5        1.0  0.90010  0.99084  0.93136  1.0000
  O   O6        1.0  0.40010  0.49084  0.43136  1.0000
  O   O7        1.0  0.88802  0.23543  0.93137  1.0000
  O   O8        1.0  0.38802  0.73543  0.43137  1.0000
  O   O9        1.0  0.90009  0.99084  0.06885  1.0000
  O   O10       1.0  0.40009  0.49084  0.56885  1.0000
  O   O11       1.0  0.78387  0.12004  0.06885  1.0000
  O   O12       1.0  0.28387  0.62004  0.56885  1.0000
  O   O13       1.0  0.00422  0.10622  0.06887  1.0000
  O   O14       1.0  0.50422  0.60622  0.56887  1.0000
  Cu  Cu1       1.0  0.89404  0.11313  0.08142  1.0000
  Cu  Cu2       1.0  0.39404  0.61313  0.58142  1.0000
  Cu  Cu3       1.0  0.89406  0.11314  0.91881  1.0000
  Cu  Cu4       1.0  0.39406  0.61314  0.41881  1.0000
  O   O15       1.0  0.88800  0.23542  0.06887  1.0000
  O   O16       1.0  0.38800  0.73542  0.56887  1.0000
  C   C1        1.0  0.75568  0.11955  0.00010  1.0000
  C   C2        1.0  0.25568  0.61955  0.50010  1.0000
  C   C3        1.0  0.67166  0.11806  0.00009  1.0000
  C   C4        1.0  0.17166  0.61806  0.50009  1.0000
  C   C5        1.0  0.89960  0.95955  0.00010  1.0000
  C   C6        1.0  0.39960  0.45955  0.50010  1.0000
  C   C7        1.0  0.89812  0.86630  0.00009  1.0000
  C   C8        1.0  0.39812  0.36630  0.50009  1.0000
  C   C9        1.0  0.62315  0.19390  0.00009  1.0000
  C   C10       1.0  0.12315  0.69390  0.50009  1.0000
  C   C11       1.0  0.54421  0.19250  0.00010  1.0000
  C   C12       1.0  0.04421  0.69250  0.50010  1.0000
  C   C13       1.0  0.51377  0.11526  0.00010  1.0000
  C   C14       1.0  0.01377  0.61526  0.50010  1.0000
  C   C15       1.0  0.56228  0.03941  0.00010  1.0000
  C   C16       1.0  0.06228  0.53941  0.50010  1.0000
  C   C17       1.0  0.64122  0.04081  0.00010  1.0000
  C   C18       1.0  0.14122  0.54082  0.50010  1.0000
  C   C19       1.0  0.24391  0.03376  0.00012  1.0000
  C   C20       1.0  0.74391  0.53376  0.50012  1.0000
  C   C21       1.0  0.16496  0.03236  0.00012  1.0000
  C   C22       1.0  0.66496  0.53236  0.50012  1.0000
  C   C23       1.0  0.14689  0.18544  0.00013  1.0000
  C   C24       1.0  0.64689  0.68544  0.50013  1.0000
  C   C25       1.0  0.22583  0.18684  0.00012  1.0000
  C   C26       1.0  0.72583  0.68684  0.50012  1.0000
  C   C27       1.0  0.27434  0.11100  0.00013  1.0000
  C   C28       1.0  0.77434  0.61100  0.50013  1.0000
  C   C29       1.0  0.35994  0.11252  0.00012  1.0000
  C   C30       1.0  0.85994  0.61252  0.50011  1.0000
  C   C31       1.0  0.42817  0.11374  0.00011  1.0000
  C   C32       1.0  0.92817  0.61374  0.50011  1.0000
  C   C33       1.0  0.96653  0.63040  0.00012  1.0000
  C   C34       1.0  0.46653  0.13040  0.50012  1.0000
  C   C35       1.0  0.92965  0.57991  0.93232  1.0000
  C   C36       1.0  0.42965  0.07991  0.43232  1.0000
  C   C37       1.0  0.89538  0.69559  0.00010  1.0000
  C   C38       1.0  0.39538  0.19559  0.50010  1.0000
  C   C39       1.0  0.92961  0.57993  0.06788  1.0000
  C   C40       1.0  0.42961  0.07993  0.56788  1.0000
  C   C41       1.0  0.89273  0.53068  0.00012  1.0000
  C   C42       1.0  0.39273  0.03068  0.50012  1.0000
  C   C43       1.0  0.85851  0.64633  0.93225  1.0000
  C   C44       1.0  0.35851  0.14633  0.43225  1.0000
  C   C45       1.0  0.85849  0.64635  0.06787  1.0000
  C   C46       1.0  0.35849  0.14635  0.56787  1.0000
  C   C47       1.0  0.82156  0.59589  0.00006  1.0000
  C   C48       1.0  0.32156  0.09589  0.50006  1.0000
  C   C49       1.0  0.89690  0.79058  0.00010  1.0000
  C   C50       1.0  0.39690  0.29058  0.50009  1.0000
  C   C51       1.0  0.89120  0.43569  0.00012  1.0000
  C   C52       1.0  0.39120  0.93569  0.50012  1.0000
  C   C53       1.0  0.03243  0.10672  0.00013  1.0000
  C   C54       1.0  0.53243  0.60672  0.50013  1.0000
  C   C55       1.0  0.11645  0.10820  0.00013  1.0000
  C   C56       1.0  0.61645  0.60820  0.50013  1.0000
  C   C57       1.0  0.88851  0.26671  0.00012  1.0000
  C   C58       1.0  0.38851  0.76672  0.50012  1.0000
  C   C59       1.0  0.88999  0.35996  0.00013  1.0000
  C   C60       1.0  0.38999  0.85996  0.50013  1.0000
  N   N1        1.0  0.89404  0.11312  0.19578  1.0000
  N   N2        1.0  0.39404  0.61312  0.69578  1.0000
  N   N3        1.0  0.89408  0.11314  0.80445  1.0000
  N   N4        1.0  0.39408  0.61314  0.30445  1.0000
  C   C61       1.0  0.94551  0.05593  0.23905  1.0000
  C   C62       1.0  0.44551  0.55593  0.73905  1.0000
  C   C63       1.0  0.94552  0.05593  0.32559  1.0000
  C   C64       1.0  0.44552  0.55593  0.82559  1.0000
  C   C65       1.0  0.89405  0.11312  0.36887  1.0000
  C   C66       1.0  0.39405  0.61312  0.86887  1.0000
  C   C67       1.0  0.84256  0.17031  0.32560  1.0000
  C   C68       1.0  0.34256  0.67031  0.82560  1.0000
  C   C69       1.0  0.84256  0.17031  0.23905  1.0000
  C   C70       1.0  0.34256  0.67031  0.73905  1.0000
  C   C71       1.0  0.84259  0.17033  0.67463  1.0000
  C   C72       1.0  0.34259  0.67033  0.17463  1.0000
  C   C73       1.0  0.84260  0.17033  0.76118  1.0000
  C   C74       1.0  0.34260  0.67033  0.26118  1.0000
  C   C75       1.0  0.94555  0.05595  0.76117  1.0000
  C   C76       1.0  0.44555  0.55595  0.26117  1.0000
  C   C77       1.0  0.94554  0.05595  0.67462  1.0000
  C   C78       1.0  0.44554  0.55595  0.17462  1.0000
  C   C79       1.0  0.89406  0.11313  0.63136  1.0000
  C   C80       1.0  0.39406  0.61313  0.13136  1.0000
  C   C81       1.0  0.89405  0.11313  0.53751  1.0000
  C   C82       1.0  0.39405  0.61313  0.03751  1.0000
  C   C83       1.0  0.89405  0.11313  0.46271  1.0000
  C   C84       1.0  0.39406  0.61313  0.96271  1.0000
  H   H1        1.0  0.64793  0.25680  0.00009  1.0000
  H   H2        1.0  0.14793  0.75680  0.50009  1.0000
  H   H3        1.0  0.68072  0.97906  0.00009  1.0000
  H   H4        1.0  0.18072  0.47906  0.50009  1.0000
  H   H5        1.0  0.80064  0.21687  0.20383  1.0000
  H   H6        1.0  0.30064  0.71687  0.70383  1.0000
  C   C85       1.0  0.04842  0.03738  0.57710  1.0000
  C   C86       1.0  0.54842  0.53738  0.07710  1.0000
  C   C87       1.0  0.00199  0.99301  0.62697  1.0000
  C   C88       1.0  0.50199  0.49301  0.12697  1.0000
  H   H7        1.0  0.08323  0.99850  0.54767  1.0000
  H   H8        1.0  0.58323  0.49850  0.04767  1.0000
  H   H9        1.0  0.01775  0.07151  0.53902  1.0000
  H   H10       1.0  0.51775  0.57151  0.03902  1.0000
  H   H11       1.0  0.07578  0.07222  0.61081  1.0000
  H   H12       1.0  0.57578  0.57222  0.11081  1.0000
  H   H13       1.0  0.97463  0.95817  0.59326  1.0000
  H   H14       1.0  0.47463  0.45817  0.09326  1.0000
  H   H15       1.0  0.03266  0.95886  0.66506  1.0000
  H   H16       1.0  0.53266  0.45886  0.16506  1.0000
  C   C89       1.0  0.08666  0.94197  0.92945  1.0000
  C   C90       1.0  0.58666  0.44197  0.42945  1.0000
  C   C91       1.0  0.13150  0.94745  0.00013  1.0000
  C   C92       1.0  0.63150  0.44745  0.50013  1.0000
  H   H17       1.0  0.06601  0.88955  0.92945  1.0000
  H   H18       1.0  0.56601  0.38955  0.42945  1.0000
  H   H19       1.0  0.04648  0.98694  0.92945  1.0000
  H   H20       1.0  0.54648  0.48694  0.42945  1.0000
  H   H21       1.0  0.11709  0.94570  0.88151  1.0000
  H   H22       1.0  0.61709  0.44570  0.38151  1.0000
  H   H23       1.0  0.10107  0.94373  0.04807  1.0000
  H   H24       1.0  0.60107  0.44373  0.54807  1.0000
  H   H25       1.0  0.17169  0.90248  0.00013  1.0000
  H   H26       1.0  0.67169  0.40248  0.50013  1.0000
  C   C93       1.0  0.81920  0.77317  0.14399  1.0000
  C   C94       1.0  0.31920  0.27317  0.64399  1.0000
  C   C95       1.0  0.81795  0.68553  0.14524  1.0000
  C   C96       1.0  0.31795  0.18553  0.64524  1.0000
  H   H27       1.0  0.79417  0.79736  0.19176  1.0000
  H   H28       1.0  0.29417  0.29736  0.69176  1.0000
  H   H29       1.0  0.87041  0.78558  0.14352  1.0000
  H   H30       1.0  0.37041  0.28558  0.64352  1.0000
  H   H31       1.0  0.79385  0.79601  0.09586  1.0000
  H   H32       1.0  0.29385  0.29601  0.59586  1.0000
  H   H33       1.0  0.84331  0.66269  0.19336  1.0000
  H   H34       1.0  0.34330  0.16269  0.69336  1.0000
  H   H35       1.0  0.76673  0.67312  0.14572  1.0000
  H   H36       1.0  0.26673  0.17312  0.64572  1.0000
  C   C97       1.0  0.53428  0.34395  0.00009  1.0000
  C   C98       1.0  0.03428  0.84395  0.50009  1.0000
  C   C99       1.0  0.49089  0.27586  0.00010  1.0000
  C   C100      1.0  0.99089  0.77586  0.50010  1.0000
  H   H37       1.0  0.50136  0.39542  0.00009  1.0000
  H   H38       1.0  0.00136  0.89542  0.50009  1.0000
  H   H39       1.0  0.56544  0.34131  0.04803  1.0000
  H   H40       1.0  0.06544  0.84132  0.54803  1.0000
  H   H41       1.0  0.56544  0.34131  0.95214  1.0000
  H   H42       1.0  0.06544  0.84131  0.45214  1.0000
  H   H43       1.0  0.45973  0.27850  0.04806  1.0000
  H   H44       1.0  0.95973  0.77850  0.54806  1.0000
  H   H45       1.0  0.45971  0.27850  0.95216  1.0000
  H   H46       1.0  0.95971  0.77850  0.45216  1.0000
  C   C101      1.0  0.30412  0.27723  0.92942  1.0000
  C   C102      1.0  0.80412  0.77723  0.42942  1.0000
  C   C103      1.0  0.25928  0.27175  0.00011  1.0000
  C   C104      1.0  0.75928  0.77175  0.50011  1.0000
  H   H47       1.0  0.32476  0.32965  0.92941  1.0000
  H   H48       1.0  0.82476  0.82966  0.42941  1.0000
  H   H49       1.0  0.34430  0.23228  0.92943  1.0000
  H   H50       1.0  0.84430  0.73228  0.42943  1.0000
  H   H51       1.0  0.27368  0.27350  0.88149  1.0000
  H   H52       1.0  0.77368  0.77350  0.38149  1.0000
  H   H53       1.0  0.28972  0.27548  0.04805  1.0000
  H   H54       1.0  0.78972  0.77548  0.54805  1.0000
  H   H55       1.0  0.21909  0.31672  0.00011  1.0000
  H   H56       1.0  0.71909  0.81672  0.50011  1.0000
  H   H57       1.0  0.10739  0.24720  0.00013  1.0000
  H   H58       1.0  0.60739  0.74720  0.50013  1.0000
  C   C105      1.0  0.99003  0.91046  0.78781  1.0000
  C   C106      1.0  0.49003  0.41047  0.28781  1.0000
  C   C107      1.0  0.00214  0.99308  0.80873  1.0000
  C   C108      1.0  0.50214  0.49308  0.30873  1.0000
  H   H59       1.0  0.02496  0.87165  0.81717  1.0000
  H   H60       1.0  0.52496  0.37165  0.31717  1.0000
  H   H61       1.0  0.93952  0.90142  0.80200  1.0000
  H   H62       1.0  0.43952  0.40142  0.30200  1.0000
  H   H63       1.0  0.99739  0.90229  0.73007  1.0000
  H   H64       1.0  0.49739  0.40229  0.23007  1.0000
  H   H65       1.0  0.99477  0.00125  0.86647  1.0000
  H   H66       1.0  0.49477  0.50125  0.36647  1.0000
  H   H67       1.0  0.05265  0.00213  0.79454  1.0000
  H   H68       1.0  0.55265  0.50213  0.29454  1.0000
  C   C109      1.0  0.86910  0.72665  0.80809  1.0000
  C   C110      1.0  0.36910  0.22665  0.30809  1.0000
  C   C111      1.0  0.81800  0.68531  0.85478  1.0000
  C   C112      1.0  0.31800  0.18531  0.35478  1.0000
  H   H69       1.0  0.84409  0.75071  0.76026  1.0000
  H   H70       1.0  0.34409  0.25071  0.26026  1.0000
  H   H71       1.0  0.88699  0.77001  0.84042  1.0000
  H   H72       1.0  0.38698  0.27001  0.34042  1.0000
  H   H73       1.0  0.91087  0.68727  0.79191  1.0000
  H   H74       1.0  0.41088  0.18727  0.29191  1.0000
  H   H75       1.0  0.77622  0.72469  0.87097  1.0000
  H   H76       1.0  0.27622  0.22469  0.37097  1.0000
  H   H77       1.0  0.80010  0.64194  0.82244  1.0000
  H   H78       1.0  0.30010  0.14194  0.32244  1.0000
  H   H79       1.0  0.80065  0.21687  0.36084  1.0000
  H   H80       1.0  0.30065  0.71687  0.86084  1.0000
  H   H81       1.0  0.28339  0.97200  0.00012  1.0000
  H   H82       1.0  0.78339  0.47200  0.50012  1.0000
  H   H83       1.0  0.76022  0.58056  0.00001  1.0000
  H   H84       1.0  0.26022  0.08056  0.50001  1.0000
  C   C113      1.0  0.44929  0.96929  0.00010  1.0000
  C   C114      1.0  0.94929  0.46929  0.50010  1.0000
  C   C115      1.0  0.52882  0.95451  0.00010  1.0000
  C   C116      1.0  0.02882  0.45451  0.50010  1.0000
  H   H85       1.0  0.42864  0.91687  0.00009  1.0000
  H   H86       1.0  0.92864  0.41687  0.50009  1.0000
  H   H87       1.0  0.43264  0.00050  0.04804  1.0000
  H   H88       1.0  0.93264  0.50050  0.54805  1.0000
  H   H89       1.0  0.43265  0.00052  0.95215  1.0000
  H   H90       1.0  0.93265  0.50052  0.45215  1.0000
  H   H91       1.0  0.54547  0.92329  0.04805  1.0000
  H   H92       1.0  0.04547  0.42329  0.54805  1.0000
  H   H93       1.0  0.54548  0.92329  0.95215  1.0000
  H   H94       1.0  0.04548  0.42329  0.45215  1.0000
  C   C117      1.0  0.08634  0.61767  0.92893  1.0000
  C   C118      1.0  0.58634  0.11767  0.42893  1.0000
  C   C119      1.0  0.04925  0.65137  0.00002  1.0000
  C   C120      1.0  0.54925  0.15137  0.50002  1.0000
  H   H95       1.0  0.13741  0.63064  0.92886  1.0000
  H   H96       1.0  0.63741  0.13064  0.42886  1.0000
  H   H97       1.0  0.08599  0.55815  0.92845  1.0000
  H   H98       1.0  0.58599  0.05815  0.42845  1.0000
  H   H99       1.0  0.06080  0.64139  0.88127  1.0000
  H   H100      1.0  0.56080  0.14139  0.38127  1.0000
  H   H101      1.0  0.07479  0.62765  0.04768  1.0000
  H   H102      1.0  0.57479  0.12765  0.54768  1.0000
  H   H103      1.0  0.04961  0.71090  0.00050  1.0000
  H   H104      1.0  0.54961  0.21090  0.50050  1.0000
  H   H105      1.0  0.80069  0.21690  0.79641  1.0000
  H   H106      1.0  0.30069  0.71690  0.29642  1.0000
  H   H107      1.0  0.95967  0.55093  0.12519  1.0000
  H   H108      1.0  0.45967  0.05093  0.62519  1.0000
  C   C121      1.0  0.91895  0.49999  0.80791  1.0000
  C   C122      1.0  0.41895  0.99999  0.30791  1.0000
  C   C123      1.0  0.97021  0.54075  0.85495  1.0000
  C   C124      1.0  0.47021  0.04075  0.35495  1.0000
  H   H109      1.0  0.94400  0.47583  0.76015  1.0000
  H   H110      1.0  0.44400  0.97583  0.26015  1.0000
  H   H111      1.0  0.90060  0.45678  0.84005  1.0000
  H   H112      1.0  0.40060  0.95678  0.34005  1.0000
  H   H113      1.0  0.87749  0.53974  0.79162  1.0000
  H   H114      1.0  0.37749  0.03974  0.29162  1.0000
  H   H115      1.0  0.01167  0.50100  0.87125  1.0000
  H   H116      1.0  0.51167  0.00100  0.37125  1.0000
  H   H117      1.0  0.98857  0.58398  0.82281  1.0000
  H   H118      1.0  0.48857  0.08397  0.32281  1.0000
  C   C125      1.0  0.04727  0.94287  0.24774  1.0000
  C   C126      1.0  0.54727  0.44287  0.74774  1.0000
  C   C127      1.0  0.00209  0.99306  0.19148  1.0000
  C   C128      1.0  0.50209  0.49306  0.69148  1.0000
  H   H119      1.0  0.08220  0.90405  0.21837  1.0000
  H   H120      1.0  0.58220  0.40405  0.71837  1.0000
  H   H121      1.0  0.07449  0.97779  0.28148  1.0000
  H   H122      1.0  0.57449  0.47779  0.78148  1.0000
  H   H123      1.0  0.01577  0.91270  0.28150  1.0000
  H   H124      1.0  0.51577  0.41270  0.78150  1.0000
  H   H125      1.0  0.03360  0.02323  0.15772  1.0000
  H   H126      1.0  0.53360  0.52323  0.65772  1.0000
  H   H127      1.0  0.97487  0.95813  0.15772  1.0000
  H   H128      1.0  0.47487  0.45813  0.65772  1.0000
  H   H129      1.0  0.98743  0.00937  0.36082  1.0000
  H   H130      1.0  0.48743  0.50936  0.86082  1.0000
  C   C129      1.0  0.74084  0.28339  0.68334  1.0000
  C   C130      1.0  0.24084  0.78339  0.18334  1.0000
  C   C131      1.0  0.78600  0.23319  0.62708  1.0000
  C   C132      1.0  0.28601  0.73319  0.12708  1.0000
  H   H131      1.0  0.70591  0.32221  0.65398  1.0000
  H   H132      1.0  0.20590  0.82221  0.15398  1.0000
  H   H133      1.0  0.71362  0.24847  0.71710  1.0000
  H   H134      1.0  0.21362  0.74847  0.21710  1.0000
  H   H135      1.0  0.77235  0.31356  0.71709  1.0000
  H   H136      1.0  0.27235  0.81356  0.21709  1.0000
  H   H137      1.0  0.75449  0.20302  0.59333  1.0000
  H   H138      1.0  0.25449  0.70302  0.09333  1.0000
  H   H139      1.0  0.81322  0.26812  0.59330  1.0000
  H   H140      1.0  0.31322  0.76812  0.09330  1.0000
