data_image0
_chemical_formula_structural       O7Zn2OC16N2C8H3C2H5C2H8
_chemical_formula_sum              "O8 Zn2 C28 N2 H16"
_cell_length_a       14.0442
_cell_length_b       14.0442
_cell_length_c       15.1862
_cell_angle_alpha    89.9914
_cell_angle_beta     90.0015
_cell_angle_gamma    93.1903

_space_group_name_H-M_alt    "P 1"
_space_group_IT_number       1

loop_
  _space_group_symop_operation_xyz
  'x, y, z'

loop_
  _atom_site_type_symbol
  _atom_site_label
  _atom_site_symmetry_multiplicity
  _atom_site_fract_x
  _atom_site_fract_y
  _atom_site_fract_z
  _atom_site_occupancy
  O   O1        1.0  0.27717  0.23017  0.92685  1.0000
  O   O2        1.0  0.00050  0.22186  0.92683  1.0000
  O   O3        1.0  0.13468  0.08768  0.92685  1.0000
  O   O4        1.0  0.14299  0.36435  0.92682  1.0000
  O   O5        1.0  0.13467  0.08768  0.07331  1.0000
  O   O6        1.0  0.00049  0.22186  0.07328  1.0000
  O   O7        1.0  0.27716  0.23016  0.07330  1.0000
  Zn  Zn1       1.0  0.13882  0.22601  0.09655  1.0000
  Zn  Zn2       1.0  0.13884  0.22601  0.90358  1.0000
  O   O8        1.0  0.14298  0.36435  0.07328  1.0000
  C   C1        1.0  0.96487  0.21822  0.00005  1.0000
  C   C2        1.0  0.85873  0.20738  0.00004  1.0000
  C   C3        1.0  0.66439  0.18755  0.00006  1.0000
  C   C4        1.0  0.61326  0.26447  0.00006  1.0000
  C   C5        1.0  0.50513  0.25344  0.00007  1.0000
  C   C6        1.0  0.77254  0.19858  0.00005  1.0000
  C   C7        1.0  0.13104  0.05205  0.00008  1.0000
  C   C8        1.0  0.12019  0.94591  0.00009  1.0000
  C   C9        1.0  0.17729  0.70045  0.00006  1.0000
  C   C10       1.0  0.10038  0.75158  0.00006  1.0000
  C   C11       1.0  0.11140  0.85972  0.00008  1.0000
  C   C12       1.0  0.16627  0.59231  0.00004  1.0000
  C   C13       1.0  0.31279  0.23380  0.00008  1.0000
  C   C14       1.0  0.41893  0.24465  0.00008  1.0000
  C   C15       1.0  0.14662  0.39997  0.00004  1.0000
  C   C16       1.0  0.15747  0.50611  0.00003  1.0000
  N   N1        1.0  0.13882  0.22601  0.22824  1.0000
  N   N2        1.0  0.13885  0.22601  0.77189  1.0000
  C   C17       1.0  0.19826  0.16662  0.45398  1.0000
  C   C18       1.0  0.19826  0.16661  0.54616  1.0000
  C   C19       1.0  0.07940  0.28540  0.54615  1.0000
  C   C20       1.0  0.07940  0.28540  0.45396  1.0000
  C   C21       1.0  0.13883  0.22601  0.40788  1.0000
  C   C22       1.0  0.13884  0.22601  0.59225  1.0000
  C   C23       1.0  0.13884  0.22601  0.69221  1.0000
  C   C24       1.0  0.13883  0.22601  0.30791  1.0000
  H   H1        1.0  0.65071  0.33860  0.00005  1.0000
  H   H2        1.0  0.62695  0.11342  0.00008  1.0000
  H   H3        1.0  0.02624  0.71413  0.00005  1.0000
  C   C25       1.0  0.25096  0.11379  0.31266  1.0000
  C   C26       1.0  0.26354  0.10128  0.40332  1.0000
  H   H4        1.0  0.29125  0.07344  0.28139  1.0000
  H   H5        1.0  0.18636  0.09805  0.29759  1.0000
  H   H6        1.0  0.26677  0.17838  0.29753  1.0000
  H   H7        1.0  0.24772  0.03669  0.41845  1.0000
  H   H8        1.0  0.32815  0.11702  0.41840  1.0000
  C   C27       1.0  0.26905  0.84989  0.00011  1.0000
  C   C28       1.0  0.27736  0.75099  0.00009  1.0000
  H   H9        1.0  0.33083  0.88109  0.00014  1.0000
  H   H10       1.0  0.23537  0.86784  0.94903  1.0000
  H   H11       1.0  0.23533  0.86780  0.05118  1.0000
  H   H12       1.0  0.31108  0.73308  0.94901  1.0000
  H   H13       1.0  0.31106  0.73303  0.05117  1.0000
  H   H14       1.0  0.24666  0.11825  0.58369  1.0000
  H   H15       1.0  0.03101  0.33376  0.58368  1.0000
  H   H16       1.0  0.03099  0.33377  0.41642  1.0000
