data_image0
_chemical_formula_structural       O14Cu4O2C64N4C28H2F2H8F4H4F2H6F2H2F4H2F6H4F2H2F4
_chemical_formula_sum              "O16 Cu4 C92 N4 H30 F26"
_cell_length_a       17.0383
_cell_length_b       17.0193
_cell_length_c       13.3304
_cell_angle_alpha    93.8737
_cell_angle_beta     89.9953
_cell_angle_gamma    87.2414

_space_group_name_H-M_alt    "P 1"
_space_group_IT_number       1

loop_
  _space_group_symop_operation_xyz
  'x, y, z'

loop_
  _atom_site_type_symbol
  _atom_site_label
  _atom_site_symmetry_multiplicity
  _atom_site_fract_x
  _atom_site_fract_y
  _atom_site_fract_z
  _atom_site_occupancy
  O   O1        1.0  0.09955  0.05336  0.00761  1.0000
  O   O2        1.0  0.59955  0.55336  0.50761  1.0000
  O   O3        1.0  0.11226  0.82455  0.98783  1.0000
  O   O4        1.0  0.61226  0.32455  0.48783  1.0000
  O   O5        1.0  0.99209  0.93759  0.99761  1.0000
  O   O6        1.0  0.49209  0.43759  0.49761  1.0000
  O   O7        1.0  0.21972  0.94032  0.99783  1.0000
  O   O8        1.0  0.71972  0.44032  0.49783  1.0000
  O   O9        1.0  0.99209  0.93758  0.16445  1.0000
  O   O10       1.0  0.49208  0.43758  0.66445  1.0000
  O   O11       1.0  0.11226  0.82453  0.15468  1.0000
  O   O12       1.0  0.61226  0.32453  0.65468  1.0000
  O   O13       1.0  0.09954  0.05334  0.17445  1.0000
  O   O14       1.0  0.59954  0.55334  0.67445  1.0000
  Cu  Cu1       1.0  0.10590  0.93894  0.17980  1.0000
  Cu  Cu2       1.0  0.60590  0.43894  0.67980  1.0000
  Cu  Cu3       1.0  0.10590  0.93896  0.98248  1.0000
  Cu  Cu4       1.0  0.60590  0.43896  0.48248  1.0000
  O   O15       1.0  0.21971  0.94030  0.16467  1.0000
  O   O16       1.0  0.71971  0.44030  0.66467  1.0000
  C   C1        1.0  0.11178  0.79512  0.06871  1.0000
  C   C2        1.0  0.61178  0.29512  0.56871  1.0000
  C   C3        1.0  0.11034  0.70745  0.06113  1.0000
  C   C4        1.0  0.61034  0.20745  0.56113  1.0000
  C   C5        1.0  0.10966  0.66626  0.14852  1.0000
  C   C6        1.0  0.60966  0.16626  0.64852  1.0000
  C   C7        1.0  0.10829  0.58389  0.14141  1.0000
  C   C8        1.0  0.60829  0.08389  0.64141  1.0000
  C   C9        1.0  0.10761  0.54271  0.04690  1.0000
  C   C10       1.0  0.60761  0.04271  0.54690  1.0000
  C   C11       1.0  0.10829  0.58391  0.95950  1.0000
  C   C12       1.0  0.60829  0.08391  0.45950  1.0000
  C   C13       1.0  0.10965  0.66628  0.96662  1.0000
  C   C14       1.0  0.60965  0.16628  0.46662  1.0000
  C   C15       1.0  0.10350  0.29401  0.02086  1.0000
  C   C16       1.0  0.60350  0.79401  0.52086  1.0000
  C   C17       1.0  0.10214  0.21163  0.01375  1.0000
  C   C18       1.0  0.60214  0.71163  0.51375  1.0000
  C   C19       1.0  0.10215  0.21162  0.19565  1.0000
  C   C20       1.0  0.60215  0.71162  0.69565  1.0000
  C   C21       1.0  0.10351  0.29399  0.20276  1.0000
  C   C22       1.0  0.60351  0.79399  0.70276  1.0000
  C   C23       1.0  0.10418  0.33518  0.11537  1.0000
  C   C24       1.0  0.60418  0.83518  0.61537  1.0000
  C   C25       1.0  0.10622  0.45851  0.03962  1.0000
  C   C26       1.0  0.60622  0.95851  0.53962  1.0000
  C   C27       1.0  0.10557  0.41938  0.12264  1.0000
  C   C28       1.0  0.60557  0.91938  0.62264  1.0000
  C   C29       1.0  0.96296  0.93511  0.08082  1.0000
  C   C30       1.0  0.46296  0.43511  0.58082  1.0000
  C   C31       1.0  0.87618  0.92773  0.08018  1.0000
  C   C32       1.0  0.37618  0.42773  0.58018  1.0000
  C   C33       1.0  0.82600  0.99549  0.08604  1.0000
  C   C34       1.0  0.32600  0.49549  0.58604  1.0000
  C   C35       1.0  0.74445  0.98855  0.08543  1.0000
  C   C36       1.0  0.24445  0.48855  0.58543  1.0000
  C   C37       1.0  0.71309  0.91385  0.07897  1.0000
  C   C38       1.0  0.21309  0.41385  0.57897  1.0000
  C   C39       1.0  0.76327  0.84609  0.07311  1.0000
  C   C40       1.0  0.26327  0.34609  0.57311  1.0000
  C   C41       1.0  0.84481  0.85303  0.07371  1.0000
  C   C42       1.0  0.34481  0.35303  0.57371  1.0000
  C   C43       1.0  0.46735  0.88933  0.07684  1.0000
  C   C44       1.0  0.96735  0.38933  0.57684  1.0000
  C   C45       1.0  0.38580  0.88240  0.07624  1.0000
  C   C46       1.0  0.88580  0.38240  0.57624  1.0000
  C   C47       1.0  0.36699  0.02487  0.08856  1.0000
  C   C48       1.0  0.86699  0.52487  0.58856  1.0000
  C   C49       1.0  0.44854  0.03180  0.08916  1.0000
  C   C50       1.0  0.94854  0.53180  0.58916  1.0000
  C   C51       1.0  0.49871  0.96403  0.08330  1.0000
  C   C52       1.0  0.99871  0.46403  0.58330  1.0000
  C   C53       1.0  0.62974  0.90676  0.07835  1.0000
  C   C54       1.0  0.12974  0.40676  0.57835  1.0000
  C   C55       1.0  0.58206  0.97113  0.08391  1.0000
  C   C56       1.0  0.08206  0.47113  0.58391  1.0000
  C   C57       1.0  0.24884  0.94278  0.08146  1.0000
  C   C58       1.0  0.74884  0.44278  0.58146  1.0000
  C   C59       1.0  0.33563  0.95016  0.08209  1.0000
  C   C60       1.0  0.83563  0.45016  0.58209  1.0000
  C   C61       1.0  0.10003  0.08277  0.09357  1.0000
  C   C62       1.0  0.60003  0.58277  0.59357  1.0000
  C   C63       1.0  0.10146  0.17044  0.10114  1.0000
  C   C64       1.0  0.60146  0.67044  0.60114  1.0000
  N   N1        1.0  0.10590  0.93893  0.31858  1.0000
  N   N2        1.0  0.60590  0.43893  0.81858  1.0000
  N   N3        1.0  0.10590  0.93897  0.84370  1.0000
  N   N4        1.0  0.60590  0.43897  0.34370  1.0000
  C   C65       1.0  0.15909  0.88890  0.78687  1.0000
  C   C66       1.0  0.65909  0.38890  0.28687  1.0000
  C   C67       1.0  0.05271  0.98904  0.79551  1.0000
  C   C68       1.0  0.55271  0.48904  0.29550  1.0000
  C   C69       1.0  0.05270  0.98903  0.69049  1.0000
  C   C70       1.0  0.55270  0.48903  0.19049  1.0000
  C   C71       1.0  0.10590  0.93895  0.63366  1.0000
  C   C72       1.0  0.60590  0.43895  0.13366  1.0000
  C   C73       1.0  0.15909  0.88889  0.68185  1.0000
  C   C74       1.0  0.65909  0.38889  0.18185  1.0000
  C   C75       1.0  0.99951  0.03910  0.64229  1.0000
  C   C76       1.0  0.49951  0.53910  0.14229  1.0000
  C   C77       1.0  0.99951  0.03909  0.53726  1.0000
  C   C78       1.0  0.49951  0.53909  0.03726  1.0000
  C   C79       1.0  0.05270  0.98901  0.48043  1.0000
  C   C80       1.0  0.55270  0.48901  0.98043  1.0000
  C   C81       1.0  0.10590  0.93895  0.52863  1.0000
  C   C82       1.0  0.60590  0.43895  0.02863  1.0000
  C   C83       1.0  0.15909  0.88887  0.47180  1.0000
  C   C84       1.0  0.65909  0.38887  0.97180  1.0000
  C   C85       1.0  0.21229  0.83880  0.51999  1.0000
  C   C86       1.0  0.71229  0.33880  0.01999  1.0000
  C   C87       1.0  0.21229  0.83881  0.62501  1.0000
  C   C88       1.0  0.71228  0.33881  0.12501  1.0000
  C   C89       1.0  0.05270  0.98900  0.37541  1.0000
  C   C90       1.0  0.55270  0.48900  0.87541  1.0000
  C   C91       1.0  0.15909  0.88886  0.36677  1.0000
  C   C92       1.0  0.65909  0.38886  0.86677  1.0000
  H   H1        1.0  0.10160  0.17807  0.26681  1.0000
  H   H2        1.0  0.60160  0.67807  0.76681  1.0000
  F   F1        1.0  0.48192  0.11131  0.09601  1.0000
  F   F2        1.0  0.98192  0.61130  0.59601  1.0000
  H   H3        1.0  0.70360  0.04373  0.09020  1.0000
  H   H4        1.0  0.20360  0.54373  0.59020  1.0000
  H   H5        1.0  0.20241  0.84808  0.32050  1.0000
  H   H6        1.0  0.70241  0.34808  0.82050  1.0000
  H   H7        1.0  0.95621  0.07987  0.68856  1.0000
  H   H8        1.0  0.45621  0.57987  0.18856  1.0000
  H   H9        1.0  0.10612  0.45291  0.19959  1.0000
  H   H10       1.0  0.60612  0.95291  0.69959  1.0000
  F   F3        1.0  0.94289  0.09238  0.48598  1.0000
  F   F4        1.0  0.44289  0.59238  0.98598  1.0000
  F   F5        1.0  0.10758  0.54005  0.23442  1.0000
  F   F6        1.0  0.60758  0.04005  0.73442  1.0000
  H   H11       1.0  0.10566  0.42498  0.96268  1.0000
  H   H12       1.0  0.60567  0.92498  0.46268  1.0000
  H   H13       1.0  0.73773  0.78527  0.06784  1.0000
  H   H14       1.0  0.23773  0.28527  0.56784  1.0000
  F   F7        1.0  0.26890  0.78552  0.67631  1.0000
  F   F8        1.0  0.76890  0.28552  0.17631  1.0000
  H   H15       1.0  0.20240  0.84813  0.82612  1.0000
  H   H16       1.0  0.70240  0.34813  0.32612  1.0000
  H   H17       1.0  0.60419  0.84594  0.07309  1.0000
  H   H18       1.0  0.10419  0.34594  0.57309  1.0000
  H   H19       1.0  0.85153  0.05632  0.09130  1.0000
  H   H20       1.0  0.35153  0.55632  0.59130  1.0000
  F   F9        1.0  0.99610  0.04229  0.32412  1.0000
  F   F10       1.0  0.49610  0.54229  0.82412  1.0000
  H   H21       1.0  0.32613  0.08004  0.09333  1.0000
  H   H22       1.0  0.82613  0.58004  0.59333  1.0000
  F   F11       1.0  0.35242  0.80289  0.06937  1.0000
  F   F12       1.0  0.85242  0.30289  0.56937  1.0000
  F   F13       1.0  0.52074  0.81721  0.07059  1.0000
  F   F14       1.0  0.02074  0.31721  0.57059  1.0000
  H   H23       1.0  0.88567  0.79785  0.06894  1.0000
  H   H24       1.0  0.38567  0.29785  0.56894  1.0000
  F   F15       1.0  0.99610  0.04233  0.85599  1.0000
  F   F16       1.0  0.49610  0.54233  0.35599  1.0000
  F   F17       1.0  0.26890  0.78551  0.45950  1.0000
  F   F18       1.0  0.76890  0.28551  0.95950  1.0000
  F   F19       1.0  0.10142  0.16781  0.91316  1.0000
  F   F20       1.0  0.60142  0.66781  0.41316  1.0000
  H   H25       1.0  0.10405  0.32753  0.94970  1.0000
  H   H26       1.0  0.60405  0.82753  0.44970  1.0000
  H   H27       1.0  0.11022  0.69978  0.22548  1.0000
  H   H28       1.0  0.61022  0.19978  0.72548  1.0000
  F   F21       1.0  0.61545  0.05063  0.09078  1.0000
  F   F22       1.0  0.11545  0.55063  0.59078  1.0000
  H   H29       1.0  0.10773  0.55037  0.88255  1.0000
  H   H30       1.0  0.60773  0.05037  0.38255  1.0000
  F   F23       1.0  0.11037  0.71012  0.87361  1.0000
  F   F24       1.0  0.61037  0.21012  0.37361  1.0000
  F   F25       1.0  0.10424  0.33781  0.30335  1.0000
  F   F26       1.0  0.60424  0.83781  0.80335  1.0000
