data_image0
_chemical_formula_structural       O7Cu2OC16N2C4HOCH5
_chemical_formula_sum              "O9 Cu2 C21 N2 H6"
_cell_length_a       14.0442
_cell_length_b       14.0442
_cell_length_c       12.9965
_cell_angle_alpha    89.9892
_cell_angle_beta     89.9995
_cell_angle_gamma    93.1903

_space_group_name_H-M_alt    "P 1"
_space_group_IT_number       1

loop_
  _space_group_symop_operation_xyz
  'x, y, z'

loop_
  _atom_site_type_symbol
  _atom_site_label
  _atom_site_symmetry_multiplicity
  _atom_site_fract_x
  _atom_site_fract_y
  _atom_site_fract_z
  _atom_site_occupancy
  O   O1        1.0  0.27717  0.23017  0.91452  1.0000
  O   O2        1.0  0.00050  0.22187  0.91450  1.0000
  O   O3        1.0  0.13468  0.08768  0.91453  1.0000
  O   O4        1.0  0.14300  0.36435  0.91449  1.0000
  O   O5        1.0  0.13467  0.08767  0.08566  1.0000
  O   O6        1.0  0.00049  0.22185  0.08563  1.0000
  O   O7        1.0  0.27716  0.23016  0.08566  1.0000
  Cu  Cu1       1.0  0.13882  0.22601  0.10127  1.0000
  Cu  Cu2       1.0  0.13884  0.22602  0.89888  1.0000
  O   O8        1.0  0.14298  0.36434  0.08562  1.0000
  C   C1        1.0  0.13104  0.05205  0.00010  1.0000
  C   C2        1.0  0.12019  0.94591  0.00011  1.0000
  C   C3        1.0  0.96487  0.21822  0.00006  1.0000
  C   C4        1.0  0.85873  0.20738  0.00005  1.0000
  C   C5        1.0  0.17729  0.70045  0.00007  1.0000
  C   C6        1.0  0.10038  0.75158  0.00007  1.0000
  C   C7        1.0  0.11140  0.85972  0.00009  1.0000
  C   C8        1.0  0.16627  0.59231  0.00005  1.0000
  C   C9        1.0  0.66439  0.18755  0.00007  1.0000
  C   C10       1.0  0.61326  0.26447  0.00007  1.0000
  C   C11       1.0  0.50513  0.25344  0.00008  1.0000
  C   C12       1.0  0.77254  0.19858  0.00006  1.0000
  C   C13       1.0  0.31279  0.23380  0.00009  1.0000
  C   C14       1.0  0.41893  0.24465  0.00009  1.0000
  C   C15       1.0  0.14662  0.39997  0.00005  1.0000
  C   C16       1.0  0.15747  0.50611  0.00004  1.0000
  N   N1        1.0  0.13882  0.22600  0.24362  1.0000
  N   N2        1.0  0.13885  0.22602  0.75654  1.0000
  C   C17       1.0  0.13884  0.22602  0.66343  1.0000
  C   C18       1.0  0.13883  0.22602  0.54663  1.0000
  C   C19       1.0  0.13883  0.22601  0.45353  1.0000
  C   C20       1.0  0.13882  0.22601  0.33671  1.0000
  H   H1        1.0  0.25142  0.73789  0.00009  1.0000
  O   O9        1.0  0.01198  0.70681  0.99992  1.0000
  C   C21       1.0  0.00102  0.64940  0.91127  1.0000
  H   H2        1.0  0.07421  0.63109  0.88172  1.0000
  H   H3        1.0  0.95756  0.58090  0.93119  1.0000
  H   H4        1.0  0.96244  0.68977  0.84921  1.0000
  H   H5        1.0  0.62695  0.11342  0.00009  1.0000
  H   H6        1.0  0.65071  0.33860  0.00005  1.0000
