data_image0
_chemical_formula_structural       Zn4O13C25N2CN2C30H2OCH3OCH3OCH3OCH3OCH5OCH3OCH3OCH5OCH3OCH3OCH9OCH4OCH3OCH4
_chemical_formula_sum              "Zn4 O27 C70 N4 H56"
_cell_length_a       17.6383
_cell_length_b       21.2954
_cell_length_c       17.6403
_cell_angle_alpha    101.215
_cell_angle_beta     114.315
_cell_angle_gamma    78.7818

_space_group_name_H-M_alt    "P 1"
_space_group_IT_number       1

loop_
  _space_group_symop_operation_xyz
  'x, y, z'

loop_
  _atom_site_type_symbol
  _atom_site_label
  _atom_site_symmetry_multiplicity
  _atom_site_fract_x
  _atom_site_fract_y
  _atom_site_fract_z
  _atom_site_occupancy
  Zn  Zn1       1.0  0.32659  0.52464  0.58343  1.0000
  Zn  Zn2       1.0  0.35436  0.64760  0.72121  1.0000
  Zn  Zn3       1.0  0.18874  0.64757  0.55551  1.0000
  Zn  Zn4       1.0  0.21659  0.56002  0.69328  1.0000
  O   O1        1.0  0.27157  0.59496  0.63836  1.0000
  O   O2        1.0  0.44562  0.52616  0.62508  1.0000
  O   O3        1.0  0.33236  0.73569  0.69923  1.0000
  O   O4        1.0  0.18374  0.61644  0.44390  1.0000
  O   O5        1.0  0.46603  0.61650  0.72630  1.0000
  O   O6        1.0  0.28502  0.52613  0.46441  1.0000
  O   O7        1.0  0.21067  0.73567  0.57749  1.0000
  O   O8        1.0  0.07708  0.65075  0.55042  1.0000
  O   O9        1.0  0.23122  0.46723  0.67871  1.0000
  O   O10       1.0  0.09755  0.58643  0.65164  1.0000
  O   O11       1.0  0.31203  0.44124  0.59800  1.0000
  O   O12       1.0  0.35937  0.65080  0.83282  1.0000
  O   O13       1.0  0.25815  0.58646  0.81230  1.0000
  C   C1        1.0  0.05741  0.62243  0.59497  1.0000
  C   C2        1.0  0.96579  0.63416  0.57642  1.0000
  C   C3        1.0  0.82597  0.68412  0.49751  1.0000
  C   C4        1.0  0.91206  0.67309  0.51494  1.0000
  C   C5        1.0  0.93346  0.60626  0.62051  1.0000
  C   C6        1.0  0.84737  0.61729  0.60309  1.0000
  C   C7        1.0  0.79363  0.65622  0.54159  1.0000
  C   C8        1.0  0.81503  0.58939  0.64717  1.0000
  C   C9        1.0  0.72895  0.60041  0.62975  1.0000
  C   C10       1.0  0.67521  0.63934  0.56825  1.0000
  C   C11       1.0  0.70755  0.66725  0.52417  1.0000
  C   C12       1.0  0.86877  0.55045  0.70866  1.0000
  C   C13       1.0  0.83643  0.52255  0.75274  1.0000
  C   C14       1.0  0.75035  0.53358  0.73533  1.0000
  C   C15       1.0  0.69661  0.57251  0.67383  1.0000
  C   C16       1.0  0.71801  0.50568  0.77941  1.0000
  C   C17       1.0  0.63192  0.51670  0.76199  1.0000
  C   C18       1.0  0.61053  0.58354  0.65641  1.0000
  C   C19       1.0  0.27164  0.43076  0.63836  1.0000
  C   C20       1.0  0.27166  0.36079  0.63835  1.0000
  C   C21       1.0  0.31374  0.31438  0.59633  1.0000
  C   C22       1.0  0.31373  0.24864  0.59629  1.0000
  C   C23       1.0  0.27166  0.22929  0.63830  1.0000
  C   C24       1.0  0.22957  0.27571  0.68033  1.0000
  C   C25       1.0  0.22957  0.34145  0.68035  1.0000
  N   N1        1.0  0.27990  0.13614  0.70911  1.0000
  N   N2        1.0  0.27990  0.07368  0.70908  1.0000
  C   C26       1.0  0.27165  0.03121  0.63822  1.0000
  N   N3        1.0  0.26341  0.05355  0.56738  1.0000
  N   N4        1.0  0.26341  0.11601  0.56741  1.0000
  C   C27       1.0  0.27165  0.15801  0.63827  1.0000
  C   C28       1.0  0.31372  0.91351  0.59615  1.0000
  C   C29       1.0  0.31370  0.84777  0.59611  1.0000
  C   C30       1.0  0.22955  0.87484  0.68015  1.0000
  C   C31       1.0  0.22956  0.94059  0.68018  1.0000
  C   C32       1.0  0.27165  0.95992  0.63818  1.0000
  C   C33       1.0  0.48657  0.56739  0.68192  1.0000
  C   C34       1.0  0.57819  0.55563  0.70049  1.0000
  C   C35       1.0  0.31482  0.62246  0.85247  1.0000
  C   C36       1.0  0.33340  0.63419  0.94408  1.0000
  C   C37       1.0  0.27154  0.75851  0.63831  1.0000
  C   C38       1.0  0.27163  0.82843  0.63811  1.0000
  C   C39       1.0  0.22817  0.56733  0.42342  1.0000
  C   C40       1.0  0.20968  0.55556  0.33183  1.0000
  C   C41       1.0  0.13078  0.50555  0.19206  1.0000
  C   C42       1.0  0.14823  0.51659  0.27814  1.0000
  C   C43       1.0  0.25370  0.58350  0.29945  1.0000
  C   C44       1.0  0.23625  0.57246  0.21337  1.0000
  C   C45       1.0  0.17479  0.53348  0.15968  1.0000
  C   C46       1.0  0.28027  0.60040  0.18099  1.0000
  C   C47       1.0  0.26282  0.58936  0.09491  1.0000
  C   C48       1.0  0.20136  0.55038  0.04122  1.0000
  C   C49       1.0  0.15734  0.52244  0.07360  1.0000
  C   C50       1.0  0.34172  0.63938  0.23468  1.0000
  C   C51       1.0  0.38574  0.66731  0.20230  1.0000
  C   C52       1.0  0.36829  0.65627  0.11623  1.0000
  C   C53       1.0  0.30683  0.61729  0.06253  1.0000
  C   C54       1.0  0.41231  0.68421  0.08384  1.0000
  C   C55       1.0  0.39486  0.67317  0.99777  1.0000
  C   C56       1.0  0.28938  0.60626  0.97645  1.0000
  H   H1        1.0  0.88019  0.49085  0.80281  1.0000
  H   H2        1.0  0.93886  0.54147  0.72284  1.0000
  O   O14       1.0  0.18859  0.38655  0.72105  1.0000
  C   C57       1.0  0.12590  0.42542  0.66337  1.0000
  H   H3        1.0  0.10770  0.39793  0.59743  1.0000
  H   H4        1.0  0.06848  0.43814  0.68032  1.0000
  H   H5        1.0  0.15082  0.47161  0.66572  1.0000
  O   O15       1.0  0.65544  0.70515  0.46448  1.0000
  C   C58       1.0  0.68001  0.76752  0.48662  1.0000
  H   H6        1.0  0.74892  0.76494  0.53094  1.0000
  H   H7        1.0  0.67089  0.78766  0.42768  1.0000
  H   H8        1.0  0.64011  0.80042  0.51915  1.0000
  O   O16       1.0  0.77028  0.46780  0.83905  1.0000
  C   C59       1.0  0.81061  0.41468  0.80228  1.0000
  H   H9        1.0  0.81085  0.42712  0.74239  1.0000
  H   H10       1.0  0.87794  0.40284  0.84811  1.0000
  H   H11       1.0  0.77565  0.37111  0.78661  1.0000
  O   O17       1.0  0.35460  0.93219  0.55527  1.0000
  C   C60       1.0  0.39175  0.87713  0.51818  1.0000
  H   H12       1.0  0.35740  0.83424  0.50846  1.0000
  H   H13       1.0  0.38743  0.88667  0.45504  1.0000
  H   H14       1.0  0.46044  0.86597  0.56103  1.0000
  O   O18       1.0  0.98573  0.56839  0.68015  1.0000
  C   C61       1.0  0.02607  0.51526  0.64340  1.0000
  H   H15       1.0  0.02631  0.52770  0.58350  1.0000
  H   H16       1.0  0.09339  0.50343  0.68923  1.0000
  H   H17       1.0  0.99111  0.47169  0.62773  1.0000
  H   H18       1.0  0.10730  0.49070  0.02988  1.0000
  H   H19       1.0  0.60559  0.49398  0.79788  1.0000
  O   O19       1.0  0.59156  0.65010  0.55119  1.0000
  C   C62       1.0  0.55107  0.69046  0.48747  1.0000
  H   H20       1.0  0.59094  0.68667  0.44935  1.0000
  H   H21       1.0  0.48718  0.67479  0.44459  1.0000
  H   H22       1.0  0.54236  0.74255  0.51696  1.0000
  O   O20       1.0  0.18441  0.53954  0.95760  1.0000
  C   C63       1.0  0.19972  0.47279  0.93310  1.0000
  H   H23       1.0  0.19567  0.44472  0.97984  1.0000
  H   H24       1.0  0.15086  0.45902  0.86801  1.0000
  H   H25       1.0  0.26500  0.46068  0.93162  1.0000
  O   O21       1.0  0.77367  0.72185  0.43770  1.0000
  C   C64       1.0  0.71318  0.68548  0.37446  1.0000
  H   H26       1.0  0.70621  0.64321  0.40103  1.0000
  H   H27       1.0  0.65038  0.71744  0.35110  1.0000
  H   H28       1.0  0.73403  0.66639  0.32013  1.0000
  H   H29       1.0  0.34801  0.33012  0.56213  1.0000
  H   H30       1.0  0.34799  0.21085  0.56207  1.0000
  O   O22       1.0  0.35444  0.80267  0.55516  1.0000
  C   C65       1.0  0.29676  0.76383  0.49242  1.0000
  H   H31       1.0  0.23081  0.79133  0.47419  1.0000
  H   H32       1.0  0.31377  0.75112  0.43504  1.0000
  H   H33       1.0  0.29906  0.71763  0.51729  1.0000
  O   O23       1.0  0.94334  0.70027  0.47207  1.0000
  C   C66       1.0  0.87745  0.73699  0.41404  1.0000
  H   H34       1.0  0.82290  0.75140  0.43537  1.0000
  H   H35       1.0  0.90048  0.78226  0.41019  1.0000
  H   H36       1.0  0.85567  0.70700  0.34965  1.0000
  O   O24       1.0  0.55822  0.62127  0.59660  1.0000
  C   C67       1.0  0.49774  0.58490  0.53336  1.0000
  H   H37       1.0  0.49077  0.54263  0.55992  1.0000
  H   H38       1.0  0.43494  0.61685  0.51000  1.0000
  H   H39       1.0  0.51858  0.56581  0.47903  1.0000
  H   H40       1.0  0.19528  0.85909  0.71434  1.0000
  H   H41       1.0  0.19530  0.97837  0.71441  1.0000
  H   H42       1.0  0.23934  0.57451  0.93274  1.0000
  H   H43       1.0  0.43578  0.69905  0.24603  1.0000
  H   H44       1.0  0.08073  0.47380  0.14834  1.0000
  H   H45       1.0  0.11240  0.49383  0.30450  1.0000
  O   O25       1.0  0.18884  0.25689  0.72125  1.0000
  C   C68       1.0  0.24651  0.21965  0.78395  1.0000
  H   H46       1.0  0.31246  0.23178  0.80220  1.0000
  H   H47       1.0  0.22950  0.23087  0.84133  1.0000
  H   H48       1.0  0.24421  0.16619  0.75903  1.0000
  H   H49       1.0  0.30374  0.61524  0.34318  1.0000
  O   O26       1.0  0.35875  0.65019  0.31831  1.0000
  C   C69       1.0  0.42245  0.69057  0.35876  1.0000
  H   H50       1.0  0.42396  0.71950  0.31150  1.0000
  H   H51       1.0  0.40927  0.72505  0.41134  1.0000
  H   H52       1.0  0.48562  0.65982  0.38615  1.0000
  O   O27       1.0  0.47209  0.72198  0.13606  1.0000
  C   C70       1.0  0.53538  0.68567  0.19660  1.0000
  H   H53       1.0  0.53519  0.63211  0.17167  1.0000
  H   H54       1.0  0.59902  0.70039  0.21039  1.0000
  H   H55       1.0  0.52311  0.69516  0.25668  1.0000
  H   H56       1.0  0.43070  0.69592  0.97140  1.0000
