data_image0
_chemical_formula_structural       O7Cu2OC2NC16NC2H2C2H6C2H5C2H5C2H6
_chemical_formula_sum              "O8 Cu2 C28 N2 H24"
_cell_length_a       9.06522
_cell_length_b       11.8044
_cell_length_c       9.06522
_cell_angle_alpha    102.011
_cell_angle_beta     94.9847
_cell_angle_gamma    102.026

_space_group_name_H-M_alt    "P 1"
_space_group_IT_number       1

loop_
  _space_group_symop_operation_xyz
  'x, y, z'

loop_
  _atom_site_type_symbol
  _atom_site_label
  _atom_site_symmetry_multiplicity
  _atom_site_fract_x
  _atom_site_fract_y
  _atom_site_fract_z
  _atom_site_occupancy
  O   O1        1.0  0.98981  0.09901  0.81305  1.0000
  O   O2        1.0  0.56053  0.09901  0.79530  1.0000
  O   O3        1.0  0.78404  0.09901  0.01882  1.0000
  O   O4        1.0  0.76630  0.09901  0.58954  1.0000
  O   O5        1.0  0.72520  0.90095  0.96004  1.0000
  O   O6        1.0  0.50168  0.90096  0.73652  1.0000
  O   O7        1.0  0.93097  0.90095  0.75427  1.0000
  Cu  Cu1       1.0  0.71095  0.88287  0.74003  1.0000
  Cu  Cu2       1.0  0.78054  0.11710  0.80955  1.0000
  O   O8        1.0  0.70745  0.90096  0.53075  1.0000
  C   C1        1.0  0.47612  0.99999  0.76762  1.0000
  C   C2        1.0  0.31228  0.99999  0.77272  1.0000
  N   N1        1.0  0.66202  0.71813  0.69113  1.0000
  C   C3        1.0  0.94700  0.34418  0.97589  1.0000
  C   C4        1.0  0.98401  0.46884  0.01289  1.0000
  C   C5        1.0  0.90352  0.53117  0.93245  1.0000
  C   C6        1.0  0.78600  0.46882  0.81502  1.0000
  C   C7        1.0  0.74898  0.34415  0.77801  1.0000
  C   C8        1.0  0.70551  0.53114  0.73457  1.0000
  C   C9        1.0  0.58799  0.46880  0.61713  1.0000
  C   C10       1.0  0.55098  0.34414  0.58013  1.0000
  C   C11       1.0  0.63148  0.28181  0.66057  1.0000
  C   C12       1.0  0.74252  0.65582  0.77158  1.0000
  C   C13       1.0  0.54451  0.65579  0.57369  1.0000
  C   C14       1.0  0.50749  0.53113  0.53670  1.0000
  C   C15       1.0  0.01538  0.99998  0.78196  1.0000
  C   C16       1.0  0.17922  0.99999  0.77686  1.0000
  C   C17       1.0  0.75291  0.99998  0.04442  1.0000
  C   C18       1.0  0.74782  0.99999  0.20826  1.0000
  N   N2        1.0  0.82949  0.28183  0.85845  1.0000
  C   C19       1.0  0.73858  0.99999  0.50516  1.0000
  C   C20       1.0  0.74368  0.99999  0.34132  1.0000
  H   H1        1.0  0.83820  0.70656  0.86719  1.0000
  H   H2        1.0  0.07970  0.51959  0.10850  1.0000
  C   C21       1.0  0.98815  0.70976  0.84602  1.0000
  C   C22       1.0  0.94421  0.66820  0.97312  1.0000
  H   H3        1.0  0.01328  0.79436  0.87114  1.0000
  H   H4        1.0  0.90665  0.68156  0.76458  1.0000
  H   H5        1.0  0.07435  0.68156  0.81614  1.0000
  H   H6        1.0  0.85800  0.69639  0.00299  1.0000
  H   H7        1.0  0.02572  0.69641  0.05458  1.0000
  H   H8        1.0  0.45530  0.29338  0.48450  1.0000
  C   C23       1.0  0.36285  0.34001  0.39211  1.0000
  C   C24       1.0  0.37833  0.46259  0.40760  1.0000
  H   H9        1.0  0.28311  0.29770  0.31241  1.0000
  H   H10       1.0  0.33945  0.31958  0.48474  1.0000
  H   H11       1.0  0.45548  0.31961  0.36866  1.0000
  H   H12       1.0  0.28569  0.48299  0.43107  1.0000
  H   H13       1.0  0.40172  0.48303  0.31495  1.0000
  C   C25       1.0  0.47265  0.69417  0.33084  1.0000
  C   C26       1.0  0.45602  0.72429  0.48526  1.0000
  H   H14       1.0  0.41803  0.73647  0.27626  1.0000
  H   H15       1.0  0.43379  0.61101  0.29201  1.0000
  H   H16       1.0  0.57741  0.71462  0.31953  1.0000
  H   H17       1.0  0.35125  0.70383  0.49657  1.0000
  H   H18       1.0  0.49487  0.80746  0.52411  1.0000
  C   C27       1.0  0.01883  0.30578  0.21873  1.0000
  C   C28       1.0  0.03546  0.27566  0.06430  1.0000
  H   H19       1.0  0.07345  0.26348  0.27331  1.0000
  H   H20       1.0  0.91408  0.28534  0.23004  1.0000
  H   H21       1.0  0.05770  0.38895  0.25756  1.0000
  H   H22       1.0  0.99657  0.19249  0.02546  1.0000
  H   H23       1.0  0.14023  0.29609  0.05298  1.0000
  H   H24       1.0  0.60133  0.18030  0.63045  1.0000
