data_image0
_chemical_formula_structural       O7Cu2OC30N2C4N2C16HFH2FHF5HFHF2HF2HF5HFHFH2F
_chemical_formula_sum              "O8 Cu2 C50 N4 H12 F20"
_cell_length_a       19.2889
_cell_length_b       16.9927
_cell_length_c       17.7663
_cell_angle_alpha    89.9937
_cell_angle_beta     89.9768
_cell_angle_gamma    86.9022

_space_group_name_H-M_alt    "P 1"
_space_group_IT_number       1

loop_
  _space_group_symop_operation_xyz
  'x, y, z'

loop_
  _atom_site_type_symbol
  _atom_site_label
  _atom_site_symmetry_multiplicity
  _atom_site_fract_x
  _atom_site_fract_y
  _atom_site_fract_z
  _atom_site_occupancy
  O   O1        1.0  0.92705  0.09780  0.93716  1.0000
  O   O2        1.0  0.72556  0.11099  0.93721  1.0000
  O   O3        1.0  0.82550  0.99025  0.93719  1.0000
  O   O4        1.0  0.82711  0.21853  0.93718  1.0000
  O   O5        1.0  0.82548  0.99025  0.06238  1.0000
  O   O6        1.0  0.72554  0.11098  0.06240  1.0000
  O   O7        1.0  0.92703  0.09779  0.06235  1.0000
  Cu  Cu1       1.0  0.82629  0.10439  0.07381  1.0000
  Cu  Cu2       1.0  0.82631  0.10439  0.92576  1.0000
  O   O8        1.0  0.82710  0.21853  0.06237  1.0000
  C   C1        1.0  0.69965  0.11056  0.99981  1.0000
  C   C2        1.0  0.62247  0.10929  0.99983  1.0000
  C   C3        1.0  0.58191  0.18013  0.99982  1.0000
  C   C4        1.0  0.50939  0.17893  0.99981  1.0000
  C   C5        1.0  0.47744  0.10689  0.99980  1.0000
  C   C6        1.0  0.51802  0.03604  0.99982  1.0000
  C   C7        1.0  0.59053  0.03724  0.99984  1.0000
  C   C8        1.0  0.36589  0.05026  0.95592  1.0000
  C   C9        1.0  0.29337  0.04906  0.95590  1.0000
  C   C10       1.0  0.25378  0.10319  0.99976  1.0000
  C   C11       1.0  0.28671  0.15852  0.04362  1.0000
  C   C12       1.0  0.35923  0.15972  0.04364  1.0000
  C   C13       1.0  0.39881  0.10558  0.99979  1.0000
  C   C14       1.0  0.13458  0.17274  0.99973  1.0000
  C   C15       1.0  0.06206  0.17154  0.99973  1.0000
  C   C16       1.0  0.07069  0.02864  0.99973  1.0000
  C   C17       1.0  0.14321  0.02984  0.99975  1.0000
  C   C18       1.0  0.17515  0.10189  0.99974  1.0000
  C   C19       1.0  0.82341  0.96104  0.99979  1.0000
  C   C20       1.0  0.81721  0.87402  0.99979  1.0000
  C   C21       1.0  0.87704  0.82357  0.99978  1.0000
  C   C22       1.0  0.87121  0.74180  0.99977  1.0000
  C   C23       1.0  0.80555  0.71049  0.99978  1.0000
  C   C24       1.0  0.74572  0.76095  0.99980  1.0000
  C   C25       1.0  0.75155  0.84271  0.99980  1.0000
  C   C26       1.0  0.78138  0.46698  0.99978  1.0000
  C   C27       1.0  0.77556  0.38521  0.99978  1.0000
  C   C28       1.0  0.90105  0.36607  0.99975  1.0000
  C   C29       1.0  0.90687  0.44783  0.99976  1.0000
  C   C30       1.0  0.84704  0.49828  0.99977  1.0000
  N   N1        1.0  0.79959  0.62691  0.99978  1.0000
  N   N2        1.0  0.85300  0.58186  0.99977  1.0000
  C   C31       1.0  0.95294  0.09822  0.99975  1.0000
  C   C32       1.0  0.03012  0.09949  0.99972  1.0000
  C   C33       1.0  0.82918  0.24773  0.99977  1.0000
  C   C34       1.0  0.83538  0.33476  0.99977  1.0000
  N   N3        1.0  0.82627  0.10438  0.17794  1.0000
  N   N4        1.0  0.82632  0.10439  0.82163  1.0000
  C   C35       1.0  0.87054  0.05094  0.21732  1.0000
  C   C36       1.0  0.87055  0.05094  0.29612  1.0000
  C   C37       1.0  0.82629  0.10439  0.33554  1.0000
  C   C38       1.0  0.78201  0.15783  0.29615  1.0000
  C   C39       1.0  0.78200  0.15782  0.21735  1.0000
  C   C40       1.0  0.82115  0.17581  0.46037  1.0000
  C   C41       1.0  0.82117  0.17582  0.53917  1.0000
  C   C42       1.0  0.82631  0.10440  0.57858  1.0000
  C   C43       1.0  0.83145  0.03296  0.53919  1.0000
  C   C44       1.0  0.83145  0.03296  0.46039  1.0000
  C   C45       1.0  0.82629  0.10439  0.42098  1.0000
  C   C46       1.0  0.87059  0.05095  0.70341  1.0000
  C   C47       1.0  0.87058  0.05095  0.78221  1.0000
  C   C48       1.0  0.78205  0.15784  0.78224  1.0000
  C   C49       1.0  0.78205  0.15784  0.70344  1.0000
  C   C50       1.0  0.82632  0.10439  0.66403  1.0000
  H   H1        1.0  0.38604  0.20478  0.07936  1.0000
  F   F1        1.0  0.91770  0.99407  0.66146  1.0000
  H   H2        1.0  0.81695  0.23398  0.42829  1.0000
  H   H3        1.0  0.90659  0.00743  0.18523  1.0000
  F   F2        1.0  0.96472  0.31237  0.99974  1.0000
  H   H4        1.0  0.96034  0.47332  0.99975  1.0000
  F   F3        1.0  0.91767  0.99406  0.33803  1.0000
  F   F4        1.0  0.94692  0.85689  0.99977  1.0000
  F   F5        1.0  0.91770  0.99407  0.82412  1.0000
  F   F6        1.0  0.83692  0.95694  0.41846  1.0000
  F   F7        1.0  0.24458  0.21613  0.09030  1.0000
  H   H5        1.0  0.16059  0.23140  0.99974  1.0000
  F   F8        1.0  0.25833  0.99017  0.90921  1.0000
  H   H6        1.0  0.47635  0.23662  0.99980  1.0000
  F   F9        1.0  0.83693  0.95694  0.58113  1.0000
  F   F10       1.0  0.01889  0.24694  0.99972  1.0000
  H   H7        1.0  0.74595  0.20134  0.18529  1.0000
  F   F11       1.0  0.73494  0.21471  0.82419  1.0000
  F   F12       1.0  0.03670  0.95196  0.99973  1.0000
  H   H8        1.0  0.17624  0.97215  0.99975  1.0000
  F   F13       1.0  0.63371  0.96183  0.99986  1.0000
  F   F14       1.0  0.71770  0.52066  0.99979  1.0000
  F   F15       1.0  0.40802  0.99264  0.90924  1.0000
  F   F16       1.0  0.73493  0.21471  0.66153  1.0000
  F   F17       1.0  0.81570  0.25184  0.58109  1.0000
  H   H9        1.0  0.74598  0.20134  0.32825  1.0000
  F   F18       1.0  0.48402  0.95936  0.99982  1.0000
  H   H10       1.0  0.91993  0.70073  0.99976  1.0000
  F   F19       1.0  0.70567  0.35189  0.99980  1.0000
  H   H11       1.0  0.69225  0.73545  0.99980  1.0000
  H   H12       1.0  0.70283  0.88379  0.99981  1.0000
  F   F20       1.0  0.61589  0.25681  0.99982  1.0000
