data_image0
_chemical_formula_structural       O7Zn2OC22N2C2H2OCH2C2H5OCH2C2H5OCH2C2H7OCH2C2H8OCH2C2H11
_chemical_formula_sum              "O13 Zn2 C39 N2 H48"
_cell_length_a       17.0383
_cell_length_b       10.723
_cell_length_c       9.79871
_cell_angle_alpha    89.9968
_cell_angle_beta     89.9963
_cell_angle_gamma    87.7894

_space_group_name_H-M_alt    "P 1"
_space_group_IT_number       1

loop_
  _space_group_symop_operation_xyz
  'x, y, z'

loop_
  _atom_site_type_symbol
  _atom_site_label
  _atom_site_symmetry_multiplicity
  _atom_site_fract_x
  _atom_site_fract_y
  _atom_site_fract_z
  _atom_site_occupancy
  O   O1        1.0  0.10972  0.66734  0.88652  1.0000
  O   O2        1.0  0.12022  0.30516  0.88651  1.0000
  O   O3        1.0  0.00114  0.48409  0.88653  1.0000
  O   O4        1.0  0.22879  0.48840  0.88650  1.0000
  O   O5        1.0  0.00114  0.48408  0.11351  1.0000
  O   O6        1.0  0.12022  0.30514  0.11349  1.0000
  O   O7        1.0  0.10971  0.66732  0.11350  1.0000
  Zn  Zn1       1.0  0.11496  0.48623  0.14953  1.0000
  Zn  Zn2       1.0  0.11497  0.48625  0.85047  1.0000
  O   O8        1.0  0.22879  0.48839  0.11349  1.0000
  C   C1        1.0  0.11945  0.25858  0.00000  1.0000
  C   C2        1.0  0.11717  0.11981  0.00000  1.0000
  C   C3        1.0  0.18143  0.90758  0.99999  1.0000
  C   C4        1.0  0.18380  0.05100  0.99999  1.0000
  C   C5        1.0  0.97199  0.48017  0.00002  1.0000
  C   C6        1.0  0.88513  0.46849  0.00002  1.0000
  C   C7        1.0  0.83561  0.57574  0.00002  1.0000
  C   C8        1.0  0.75400  0.56476  0.00001  1.0000
  C   C9        1.0  0.72191  0.44652  1.00000  1.0000
  C   C10       1.0  0.77144  0.33926  0.99999  1.0000
  C   C11       1.0  0.85305  0.35024  1.00000  1.0000
  C   C12       1.0  0.47594  0.40771  0.99998  1.0000
  C   C13       1.0  0.39432  0.39673  0.99998  1.0000
  C   C14       1.0  0.37689  0.62224  0.99999  1.0000
  C   C15       1.0  0.45850  0.63322  0.00000  1.0000
  C   C16       1.0  0.50802  0.52595  0.99999  1.0000
  C   C17       1.0  0.63849  0.43529  0.99999  1.0000
  C   C18       1.0  0.59144  0.53718  0.99999  1.0000
  C   C19       1.0  0.25794  0.49231  0.99999  1.0000
  C   C20       1.0  0.34480  0.50399  0.99998  1.0000
  C   C21       1.0  0.11048  0.71390  0.00001  1.0000
  C   C22       1.0  0.11276  0.85267  1.00000  1.0000
  N   N1        1.0  0.11496  0.48623  0.35363  1.0000
  N   N2        1.0  0.11496  0.48626  0.64638  1.0000
  C   C23       1.0  0.06486  0.56155  0.57857  1.0000
  C   C24       1.0  0.06486  0.56153  0.42141  1.0000
  H   H1        1.0  0.24259  0.09825  1.00000  1.0000
  H   H2        1.0  0.23847  0.84841  0.99998  1.0000
  O   O9        1.0  0.04466  0.92311  0.00018  1.0000
  C   C25       1.0  0.00081  0.89581  0.11776  1.0000
  H   H3        1.0  0.01941  0.79903  0.15696  1.0000
  H   H4        1.0  0.01195  0.96815  0.20008  1.0000
  C   C26       1.0  0.88989  0.01788  0.03392  1.0000
  C   C27       1.0  0.91273  0.89900  0.08205  1.0000
  H   H5        1.0  0.83556  0.01985  0.01190  1.0000
  H   H6        1.0  0.91943  0.03627  0.95471  1.0000
  H   H7        1.0  0.89918  0.07815  0.10252  1.0000
  H   H8        1.0  0.90346  0.83874  0.01344  1.0000
  H   H9        1.0  0.88319  0.88060  0.16125  1.0000
  O   O10       1.0  0.52392  0.30339  0.00004  1.0000
  C   C28       1.0  0.47810  0.19668  0.00002  1.0000
  H   H10       1.0  0.41737  0.22191  0.04298  1.0000
  H   H11       1.0  0.47210  0.16084  0.89112  1.0000
  C   C29       1.0  0.59277  0.06345  0.03627  1.0000
  C   C30       1.0  0.51818  0.09444  0.08905  1.0000
  H   H12       1.0  0.61749  0.00038  0.09118  1.0000
  H   H13       1.0  0.62364  0.13534  0.03628  1.0000
  H   H14       1.0  0.58776  0.03359  0.94552  1.0000
  H   H15       1.0  0.52319  0.12431  0.17978  1.0000
  H   H16       1.0  0.48731  0.02255  0.08905  1.0000
  O   O11       1.0  0.70581  0.66885  0.00019  1.0000
  C   C31       1.0  0.65809  0.66925  0.11775  1.0000
  H   H17       1.0  0.65343  0.56971  0.15694  1.0000
  H   H18       1.0  0.68522  0.72912  0.20008  1.0000
  C   C32       1.0  0.58130  0.84553  0.03390  1.0000
  C   C33       1.0  0.57557  0.72327  0.08202  1.0000
  H   H19       1.0  0.53040  0.87886  0.01186  1.0000
  H   H20       1.0  0.61345  0.84527  0.95469  1.0000
  H   H21       1.0  0.60392  0.89541  0.10251  1.0000
  H   H22       1.0  0.55297  0.67340  0.01341  1.0000
  H   H23       1.0  0.54341  0.72353  0.16121  1.0000
  H   H24       1.0  0.89337  0.26290  0.99999  1.0000
  H   H25       1.0  0.05837  0.07257  0.99997  1.0000
  O   O12       1.0  0.62270  0.65197  0.99981  1.0000
  C   C34       1.0  0.66937  0.66509  0.88224  1.0000
  H   H26       1.0  0.68916  0.56884  0.84304  1.0000
  H   H27       1.0  0.63362  0.71652  0.79993  1.0000
  C   C35       1.0  0.71761  0.85817  0.96611  1.0000
  C   C36       1.0  0.74192  0.73996  0.91796  1.0000
  H   H28       1.0  0.76236  0.90437  0.98814  1.0000
  H   H29       1.0  0.68616  0.84934  0.04532  1.0000
  H   H30       1.0  0.68782  0.90101  0.89751  1.0000
  H   H31       1.0  0.77170  0.69712  0.98657  1.0000
  H   H32       1.0  0.77337  0.74879  0.83877  1.0000
  H   H33       1.0  0.86173  0.67203  0.00003  1.0000
  H   H34       1.0  0.15786  0.42176  0.41193  1.0000
  H   H35       1.0  0.15786  0.42180  0.58808  1.0000
  O   O13       1.0  0.01357  0.63839  0.64797  1.0000
  C   C37       1.0  0.93600  0.60983  0.61319  1.0000
  H   H36       1.0  0.93578  0.56180  0.50941  1.0000
  H   H37       1.0  0.91152  0.54503  0.69359  1.0000
  C   C38       1.0  0.88492  0.79005  0.73424  1.0000
  C   C39       1.0  0.88465  0.73106  0.60678  1.0000
  H   H38       1.0  0.85324  0.86483  0.73029  1.0000
  H   H39       1.0  0.93718  0.80928  0.75768  1.0000
  H   H40       1.0  0.86452  0.73604  0.80123  1.0000
  H   H41       1.0  0.90506  0.78506  0.53980  1.0000
  H   H42       1.0  0.83239  0.71183  0.58333  1.0000
  H   H43       1.0  0.48462  0.72950  0.00001  1.0000
  H   H44       1.0  0.33656  0.70957  0.00000  1.0000
  H   H45       1.0  0.02196  0.62598  0.36310  1.0000
  H   H46       1.0  0.36820  0.30044  1.00000  1.0000
  H   H47       1.0  0.74531  0.24298  0.99998  1.0000
  H   H48       1.0  0.61236  0.33902  0.99999  1.0000
