data_image0
_chemical_formula_structural       O21Zn6O3C36N3C12N3C12H3C3H12C3H15
_chemical_formula_sum              "O24 Zn6 C66 N6 H30"
_cell_length_a       14.0442
_cell_length_b       14.0442
_cell_length_c       13.101
_cell_angle_alpha    86.3325
_cell_angle_beta     86.3401
_cell_angle_gamma    86.8111

_space_group_name_H-M_alt    "P 1"
_space_group_IT_number       1

loop_
  _space_group_symop_operation_xyz
  'x, y, z'

loop_
  _atom_site_type_symbol
  _atom_site_label
  _atom_site_symmetry_multiplicity
  _atom_site_fract_x
  _atom_site_fract_y
  _atom_site_fract_z
  _atom_site_occupancy
  O   O1        1.0  0.28197  0.77465  0.91489  1.0000
  O   O2        1.0  0.61530  0.10798  0.24822  1.0000
  O   O3        1.0  0.94864  0.44132  0.58156  1.0000
  O   O4        1.0  0.00530  0.78296  0.91487  1.0000
  O   O5        1.0  0.33863  0.11629  0.24820  1.0000
  O   O6        1.0  0.67196  0.44963  0.58153  1.0000
  O   O7        1.0  0.13948  0.91714  0.91489  1.0000
  O   O8        1.0  0.47281  0.25047  0.24822  1.0000
  O   O9        1.0  0.80615  0.58381  0.58155  1.0000
  O   O10       1.0  0.14779  0.64047  0.91487  1.0000
  O   O11       1.0  0.48112  0.97380  0.24820  1.0000
  O   O12       1.0  0.81445  0.30714  0.58154  1.0000
  O   O13       1.0  0.12985  0.90750  0.08532  1.0000
  O   O14       1.0  0.46319  0.24083  0.41865  1.0000
  O   O15       1.0  0.79652  0.57416  0.75198  1.0000
  O   O16       1.0  0.99567  0.77331  0.08529  1.0000
  O   O17       1.0  0.32901  0.10665  0.41863  1.0000
  O   O18       1.0  0.66234  0.43998  0.75196  1.0000
  O   O19       1.0  0.27234  0.76501  0.08532  1.0000
  O   O20       1.0  0.60568  0.09834  0.41865  1.0000
  O   O21       1.0  0.93901  0.43167  0.75199  1.0000
  Zn  Zn1       1.0  0.13248  0.76763  0.11237  1.0000
  Zn  Zn2       1.0  0.46581  0.10096  0.44570  1.0000
  Zn  Zn3       1.0  0.79915  0.43430  0.77903  1.0000
  Zn  Zn4       1.0  0.14516  0.78034  0.88782  1.0000
  Zn  Zn5       1.0  0.47849  0.11367  0.22115  1.0000
  Zn  Zn6       1.0  0.81183  0.44700  0.55449  1.0000
  O   O22       1.0  0.13816  0.63083  0.08530  1.0000
  O   O23       1.0  0.47149  0.96416  0.41863  1.0000
  O   O24       1.0  0.80483  0.29749  0.75196  1.0000
  C   C1        1.0  0.96486  0.78177  0.00008  1.0000
  C   C2        1.0  0.29820  0.11511  0.33341  1.0000
  C   C3        1.0  0.63153  0.44844  0.66674  1.0000
  C   C4        1.0  0.85872  0.79262  0.00007  1.0000
  C   C5        1.0  0.19206  0.12595  0.33340  1.0000
  C   C6        1.0  0.52539  0.45928  0.66673  1.0000
  C   C7        1.0  0.13103  0.94794  0.00010  1.0000
  C   C8        1.0  0.46436  0.28127  0.33343  1.0000
  C   C9        1.0  0.79770  0.61461  0.66677  1.0000
  C   C10       1.0  0.12019  0.05408  0.00010  1.0000
  C   C11       1.0  0.45352  0.38742  0.33343  1.0000
  C   C12       1.0  0.78685  0.72075  0.66677  1.0000
  C   C13       1.0  0.66438  0.81244  0.00009  1.0000
  C   C14       1.0  0.99772  0.14578  0.33342  1.0000
  C   C15       1.0  0.33105  0.47911  0.66675  1.0000
  C   C16       1.0  0.61325  0.73553  0.00009  1.0000
  C   C17       1.0  0.94659  0.06886  0.33342  1.0000
  C   C18       1.0  0.27992  0.40220  0.66675  1.0000
  C   C19       1.0  0.50512  0.74656  0.00010  1.0000
  C   C20       1.0  0.83845  0.07989  0.33343  1.0000
  C   C21       1.0  0.17178  0.41323  0.66677  1.0000
  C   C22       1.0  0.77253  0.80141  0.00008  1.0000
  C   C23       1.0  0.10586  0.13475  0.33341  1.0000
  C   C24       1.0  0.43920  0.46808  0.66674  1.0000
  C   C25       1.0  0.31278  0.76619  0.00011  1.0000
  C   C26       1.0  0.64611  0.09953  0.33344  1.0000
  C   C27       1.0  0.97944  0.43286  0.66677  1.0000
  C   C28       1.0  0.41892  0.75535  0.00011  1.0000
  C   C29       1.0  0.75225  0.08868  0.33344  1.0000
  C   C30       1.0  0.08559  0.42202  0.66678  1.0000
  C   C31       1.0  0.14661  0.60003  0.00008  1.0000
  C   C32       1.0  0.47994  0.93336  0.33341  1.0000
  C   C33       1.0  0.81328  0.26669  0.66675  1.0000
  C   C34       1.0  0.15745  0.49388  0.00007  1.0000
  C   C35       1.0  0.49079  0.82722  0.33341  1.0000
  C   C36       1.0  0.82412  0.16055  0.66674  1.0000
  N   N1        1.0  0.12383  0.75896  0.26561  1.0000
  N   N2        1.0  0.45716  0.09229  0.59895  1.0000
  N   N3        1.0  0.79050  0.42562  0.93228  1.0000
  C   C37       1.0  0.10036  0.24842  0.00009  1.0000
  C   C38       1.0  0.43370  0.58176  0.33342  1.0000
  C   C39       1.0  0.76703  0.91509  0.66675  1.0000
  C   C40       1.0  0.17728  0.29955  0.00009  1.0000
  C   C41       1.0  0.51061  0.63288  0.33342  1.0000
  C   C42       1.0  0.84394  0.96622  0.66676  1.0000
  C   C43       1.0  0.16624  0.40769  0.00008  1.0000
  C   C44       1.0  0.49958  0.74102  0.33341  1.0000
  C   C45       1.0  0.83291  0.07435  0.66675  1.0000
  C   C46       1.0  0.11139  0.14028  0.00010  1.0000
  C   C47       1.0  0.44473  0.47361  0.33343  1.0000
  C   C48       1.0  0.77806  0.80694  0.66676  1.0000
  N   N4        1.0  0.15382  0.78902  0.73457  1.0000
  N   N5        1.0  0.48715  0.12235  0.06790  1.0000
  N   N6        1.0  0.82048  0.45568  0.40124  1.0000
  C   C49       1.0  0.11207  0.74715  0.47465  1.0000
  C   C50       1.0  0.44540  0.08048  0.80799  1.0000
  C   C51       1.0  0.77873  0.41381  0.14132  1.0000
  C   C52       1.0  0.16558  0.80082  0.52554  1.0000
  C   C53       1.0  0.49891  0.13415  0.85887  1.0000
  C   C54       1.0  0.83225  0.46749  0.19220  1.0000
  C   C55       1.0  0.15903  0.79425  0.64185  1.0000
  C   C56       1.0  0.49237  0.12758  0.97519  1.0000
  C   C57       1.0  0.82570  0.46092  0.30852  1.0000
  C   C58       1.0  0.11861  0.75372  0.35833  1.0000
  C   C59       1.0  0.45194  0.08705  0.69166  1.0000
  C   C60       1.0  0.78528  0.42038  0.02499  1.0000
  H   H1        1.0  0.62694  0.88657  0.00010  1.0000
  H   H2        1.0  0.96028  0.21990  0.33343  1.0000
  H   H3        1.0  0.29361  0.55324  0.66677  1.0000
  C   C61       1.0  0.27742  0.24898  0.00012  1.0000
  C   C62       1.0  0.61075  0.58231  0.33346  1.0000
  C   C63       1.0  0.94409  0.91565  0.66679  1.0000
  H   H4        1.0  0.27180  0.18188  0.00014  1.0000
  H   H5        1.0  0.60513  0.51521  0.33347  1.0000
  H   H6        1.0  0.93846  0.84854  0.66680  1.0000
  H   H7        1.0  0.31449  0.27027  0.94070  1.0000
  H   H8        1.0  0.64783  0.60361  0.27403  1.0000
  H   H9        1.0  0.98116  0.93694  0.60737  1.0000
  H   H10       1.0  0.30775  0.26357  0.05957  1.0000
  H   H11       1.0  0.64108  0.59690  0.39290  1.0000
  H   H12       1.0  0.97442  0.93024  0.72624  1.0000
  H   H13       1.0  0.21631  0.85170  0.48174  1.0000
  H   H14       1.0  0.54965  0.18504  0.81508  1.0000
  H   H15       1.0  0.88298  0.51837  0.14841  1.0000
  C   C64       1.0  0.04354  0.67840  0.53381  1.0000
  C   C65       1.0  0.37688  0.01174  0.86714  1.0000
  C   C66       1.0  0.71021  0.34507  0.20047  1.0000
  H   H16       1.0  0.04809  0.68295  0.60536  1.0000
  H   H17       1.0  0.38142  0.01628  0.93869  1.0000
  H   H18       1.0  0.71475  0.34961  0.27202  1.0000
  H   H19       1.0  0.97989  0.69505  0.51629  1.0000
  H   H20       1.0  0.31323  0.02838  0.84963  1.0000
  H   H21       1.0  0.64656  0.36172  0.18296  1.0000
  H   H22       1.0  0.06039  0.61480  0.51628  1.0000
  H   H23       1.0  0.39372  0.94813  0.84961  1.0000
  H   H24       1.0  0.72706  0.28146  0.18295  1.0000
  H   H25       1.0  0.65069  0.66139  0.00008  1.0000
  H   H26       1.0  0.98403  0.99473  0.33341  1.0000
  H   H27       1.0  0.31736  0.32806  0.66674  1.0000
  H   H28       1.0  0.02624  0.28586  0.00008  1.0000
  H   H29       1.0  0.35957  0.61919  0.33341  1.0000
  H   H30       1.0  0.69290  0.95252  0.66674  1.0000
