data_image0
_chemical_formula_structural       O7Zn2OC12NC16NH2C2H6C2H5C2H5C2H5C2H6C2H5C2H6
_chemical_formula_sum              "O8 Zn2 C42 N2 H40"
_cell_length_a       11.7922
_cell_length_b       11.7922
_cell_length_c       18.3662
_cell_angle_alpha    90.0064
_cell_angle_beta     90.0048
_cell_angle_gamma    84.1934

_space_group_name_H-M_alt    "P 1"
_space_group_IT_number       1

loop_
  _space_group_symop_operation_xyz
  'x, y, z'

loop_
  _atom_site_type_symbol
  _atom_site_label
  _atom_site_symmetry_multiplicity
  _atom_site_fract_x
  _atom_site_fract_y
  _atom_site_fract_z
  _atom_site_occupancy
  O   O1        1.0  0.50692  0.15557  0.06048  1.0000
  O   O2        1.0  0.17657  0.17160  0.06050  1.0000
  O   O3        1.0  0.34976  0.99842  0.06048  1.0000
  O   O4        1.0  0.33373  0.32876  0.06049  1.0000
  O   O5        1.0  0.34973  0.99841  0.93938  1.0000
  O   O6        1.0  0.17654  0.17159  0.93940  1.0000
  O   O7        1.0  0.50689  0.15556  0.93938  1.0000
  Zn  Zn1       1.0  0.34171  0.16358  0.92016  1.0000
  Zn  Zn2       1.0  0.34175  0.16359  0.07971  1.0000
  O   O8        1.0  0.33370  0.32875  0.93939  1.0000
  C   C1        1.0  0.13427  0.17059  0.99995  1.0000
  C   C2        1.0  0.00825  0.16758  0.99995  1.0000
  C   C3        1.0  0.34874  0.95612  0.99993  1.0000
  C   C4        1.0  0.34573  0.83011  0.99993  1.0000
  C   C5        1.0  0.77754  0.16203  0.99993  1.0000
  C   C6        1.0  0.90593  0.16511  0.99995  1.0000
  C   C7        1.0  0.34018  0.59939  0.99995  1.0000
  C   C8        1.0  0.34326  0.72778  0.99994  1.0000
  C   C9        1.0  0.54919  0.15657  0.99993  1.0000
  C   C10       1.0  0.67521  0.15959  0.99993  1.0000
  C   C11       1.0  0.33472  0.37104  0.99994  1.0000
  C   C12       1.0  0.33774  0.49706  0.99995  1.0000
  N   N1        1.0  0.34169  0.16357  0.81127  1.0000
  C   C13       1.0  0.41840  0.08692  0.77316  1.0000
  C   C14       1.0  0.41841  0.08691  0.69694  1.0000
  C   C15       1.0  0.34172  0.16358  0.65882  1.0000
  C   C16       1.0  0.26499  0.24023  0.69693  1.0000
  C   C17       1.0  0.26498  0.24023  0.77316  1.0000
  C   C18       1.0  0.32748  0.26686  0.53806  1.0000
  C   C19       1.0  0.32750  0.26686  0.46184  1.0000
  C   C20       1.0  0.34175  0.16359  0.42371  1.0000
  C   C21       1.0  0.35600  0.06031  0.46182  1.0000
  C   C22       1.0  0.35599  0.06030  0.53804  1.0000
  C   C23       1.0  0.34172  0.16359  0.57616  1.0000
  C   C24       1.0  0.41847  0.08693  0.30295  1.0000
  C   C25       1.0  0.41847  0.08692  0.22672  1.0000
  C   C26       1.0  0.26506  0.24025  0.22672  1.0000
  C   C27       1.0  0.26505  0.24025  0.30295  1.0000
  C   C28       1.0  0.34177  0.16359  0.34106  1.0000
  N   N2        1.0  0.34178  0.16359  0.18861  1.0000
  H   H1        1.0  0.48088  0.02449  0.66590  1.0000
  H   H2        1.0  0.20251  0.30264  0.80419  1.0000
  C   C29       1.0  0.57279  0.06335  0.14101  1.0000
  C   C30       1.0  0.50280  0.00266  0.18483  1.0000
  H   H3        1.0  0.62484  0.01133  0.11514  1.0000
  H   H4        1.0  0.61389  0.11086  0.17075  1.0000
  H   H5        1.0  0.52709  0.10900  0.10740  1.0000
  H   H6        1.0  0.54850  0.95702  0.21843  1.0000
  H   H7        1.0  0.46169  0.95513  0.15508  1.0000
  H   H8        1.0  0.48094  0.02451  0.33398  1.0000
  C   C31       1.0  0.11076  0.26385  0.14098  1.0000
  C   C32       1.0  0.18075  0.32452  0.18483  1.0000
  H   H9        1.0  0.05872  0.31587  0.11512  1.0000
  H   H10       1.0  0.06965  0.21633  0.17071  1.0000
  H   H11       1.0  0.15646  0.21820  0.10738  1.0000
  H   H12       1.0  0.13505  0.37017  0.21844  1.0000
  H   H13       1.0  0.22187  0.37205  0.15509  1.0000
  C   C33       1.0  0.19953  0.43628  0.67348  1.0000
  C   C34       1.0  0.18068  0.32450  0.65504  1.0000
  H   H14       1.0  0.14747  0.48830  0.64762  1.0000
  H   H15       1.0  0.27535  0.44911  0.66100  1.0000
  H   H16       1.0  0.18855  0.44723  0.72434  1.0000
  H   H17       1.0  0.19168  0.31355  0.60419  1.0000
  H   H18       1.0  0.10485  0.31166  0.66752  1.0000
  C   C35       1.0  0.11342  0.39181  0.29529  1.0000
  C   C36       1.0  0.18074  0.32452  0.34484  1.0000
  H   H19       1.0  0.06137  0.44384  0.32115  1.0000
  H   H20       1.0  0.07231  0.34429  0.26555  1.0000
  H   H21       1.0  0.16093  0.43296  0.26556  1.0000
  H   H22       1.0  0.13323  0.28337  0.37456  1.0000
  H   H23       1.0  0.22185  0.37204  0.37459  1.0000
  C   C37       1.0  0.20667  0.43930  0.43837  1.0000
  C   C38       1.0  0.31184  0.38039  0.41995  1.0000
  H   H24       1.0  0.19700  0.50939  0.41251  1.0000
  H   H25       1.0  0.20463  0.45407  0.48922  1.0000
  H   H26       1.0  0.14707  0.39441  0.42586  1.0000
  H   H27       1.0  0.37145  0.42528  0.43247  1.0000
  H   H28       1.0  0.31389  0.36562  0.36909  1.0000
  H   H29       1.0  0.48087  0.02450  0.80419  1.0000
  C   C39       1.0  0.38420  0.85614  0.46947  1.0000
  C   C40       1.0  0.37168  0.94678  0.41992  1.0000
  H   H30       1.0  0.39390  0.78605  0.44360  1.0000
  H   H31       1.0  0.31812  0.85797  0.49918  1.0000
  H   H32       1.0  0.44908  0.86290  0.49921  1.0000
  H   H33       1.0  0.30680  0.94003  0.39018  1.0000
  H   H34       1.0  0.43777  0.94494  0.39019  1.0000
  C   C41       1.0  0.40748  0.39026  0.62381  1.0000
  C   C42       1.0  0.31183  0.38038  0.57997  1.0000
  H   H35       1.0  0.39781  0.46034  0.64969  1.0000
  H   H36       1.0  0.47354  0.38842  0.59408  1.0000
  H   H37       1.0  0.41594  0.32875  0.65741  1.0000
  H   H38       1.0  0.30337  0.44189  0.54637  1.0000
  H   H39       1.0  0.24575  0.38223  0.60970  1.0000
  H   H40       1.0  0.36759  0.97621  0.56907  1.0000
