data_image0
_chemical_formula_structural       O7Zn2OC28N2C10HC6H5C6H7C6H5C6H6C6H6C6H5C6H5C6H5C6H5C6H6C6H5C6H5
_chemical_formula_sum              "O8 Zn2 C110 N2 H66"
_cell_length_a       15.9446
_cell_length_b       15.9446
_cell_length_c       15.0214
_cell_angle_alpha    90.0031
_cell_angle_beta     89.9972
_cell_angle_gamma    83.4987

_space_group_name_H-M_alt    "P 1"
_space_group_IT_number       1

loop_
  _space_group_symop_operation_xyz
  'x, y, z'

loop_
  _atom_site_type_symbol
  _atom_site_label
  _atom_site_symmetry_multiplicity
  _atom_site_fract_x
  _atom_site_fract_y
  _atom_site_fract_z
  _atom_site_occupancy
  O   O1        1.0  0.11453  0.10832  0.92606  1.0000
  O   O2        1.0  0.86998  0.12168  0.92604  1.0000
  O   O3        1.0  0.99893  0.99272  0.92606  1.0000
  O   O4        1.0  0.98558  0.23727  0.92604  1.0000
  O   O5        1.0  0.99891  0.99274  0.07412  1.0000
  O   O6        1.0  0.86996  0.12169  0.07410  1.0000
  O   O7        1.0  0.11451  0.10834  0.07412  1.0000
  Zn  Zn1       1.0  0.99223  0.11502  0.09762  1.0000
  Zn  Zn2       1.0  0.99226  0.11500  0.90254  1.0000
  O   O8        1.0  0.98555  0.23729  0.07410  1.0000
  C   C1        1.0  0.83867  0.12113  0.00007  1.0000
  C   C2        1.0  0.74543  0.11947  0.00006  1.0000
  C   C3        1.0  0.53057  0.03556  0.00008  1.0000
  C   C4        1.0  0.46956  0.07452  0.92707  1.0000
  C   C5        1.0  0.57470  0.11646  0.00007  1.0000
  C   C6        1.0  0.46956  0.07456  0.07305  1.0000
  C   C7        1.0  0.40979  0.11355  0.00008  1.0000
  C   C8        1.0  0.51492  0.15544  0.92700  1.0000
  C   C9        1.0  0.51493  0.15546  0.07305  1.0000
  C   C10       1.0  0.45394  0.19448  0.00002  1.0000
  C   C11       1.0  0.66970  0.11814  0.00006  1.0000
  C   C12       1.0  0.31479  0.11188  0.00009  1.0000
  C   C13       1.0  0.99837  0.96144  0.00009  1.0000
  C   C14       1.0  0.99671  0.86819  0.00009  1.0000
  C   C15       1.0  0.91280  0.65334  0.00007  1.0000
  C   C16       1.0  0.95175  0.59233  0.07308  1.0000
  C   C17       1.0  0.99370  0.69747  0.00008  1.0000
  C   C18       1.0  0.95179  0.59233  0.92710  1.0000
  C   C19       1.0  0.99079  0.53256  0.00007  1.0000
  C   C20       1.0  0.03267  0.63769  0.07315  1.0000
  C   C21       1.0  0.03270  0.63769  0.92711  1.0000
  C   C22       1.0  0.07171  0.57670  0.00013  1.0000
  C   C23       1.0  0.99537  0.79247  0.00009  1.0000
  C   C24       1.0  0.98912  0.43755  0.00007  1.0000
  C   C25       1.0  0.14581  0.10888  0.00009  1.0000
  C   C26       1.0  0.23906  0.11055  0.00009  1.0000
  C   C27       1.0  0.98612  0.26858  0.00007  1.0000
  C   C28       1.0  0.98778  0.36182  0.00006  1.0000
  N   N1        1.0  0.99222  0.11504  0.23076  1.0000
  N   N2        1.0  0.99228  0.11497  0.76940  1.0000
  C   C29       1.0  0.93258  0.17464  0.47043  1.0000
  C   C30       1.0  0.00848  0.19094  0.52977  1.0000
  C   C31       1.0  0.99224  0.11501  0.41237  1.0000
  C   C32       1.0  0.91636  0.09873  0.52977  1.0000
  C   C33       1.0  0.99225  0.11500  0.58779  1.0000
  C   C34       1.0  0.06818  0.13136  0.47040  1.0000
  C   C35       1.0  0.97601  0.03911  0.47039  1.0000
  C   C36       1.0  0.05196  0.05539  0.52970  1.0000
  C   C37       1.0  0.99223  0.11503  0.31131  1.0000
  C   C38       1.0  0.99227  0.11498  0.68884  1.0000
  H   H1        1.0  0.53492  0.18962  0.86521  1.0000
  C   C39       1.0  0.15490  0.15007  0.43533  1.0000
  C   C40       1.0  0.22560  0.16528  0.50121  1.0000
  C   C41       1.0  0.31232  0.18400  0.46614  1.0000
  C   C42       1.0  0.32832  0.18751  0.36518  1.0000
  C   C43       1.0  0.25761  0.17230  0.29929  1.0000
  C   C44       1.0  0.17090  0.15358  0.33436  1.0000
  H   H2        1.0  0.21376  0.16269  0.57595  1.0000
  H   H3        1.0  0.36466  0.19526  0.51492  1.0000
  H   H4        1.0  0.39251  0.20136  0.33921  1.0000
  H   H5        1.0  0.26945  0.17489  0.22454  1.0000
  H   H6        1.0  0.11855  0.14232  0.28558  1.0000
  C   C45       1.0  0.16250  0.53190  0.00019  1.0000
  C   C46       1.0  0.22267  0.54633  0.07748  1.0000
  C   C47       1.0  0.31346  0.50153  0.07754  1.0000
  C   C48       1.0  0.34408  0.44230  0.00031  1.0000
  C   C49       1.0  0.28391  0.42787  0.92301  1.0000
  C   C50       1.0  0.19312  0.47267  0.92295  1.0000
  H   H7        1.0  0.20001  0.59018  0.13465  1.0000
  H   H8        1.0  0.35801  0.51221  0.13476  1.0000
  H   H9        1.0  0.41129  0.40914  0.00035  1.0000
  H   H10       1.0  0.30657  0.38402  0.86584  1.0000
  H   H11       1.0  0.14857  0.46199  0.86573  1.0000
  H   H12       1.0  0.44946  0.04029  0.86536  1.0000
  H   H13       1.0  0.42078  0.26168  0.99998  1.0000
  C   C51       1.0  0.07885  0.66469  0.15663  1.0000
  C   C52       1.0  0.04528  0.64626  0.24990  1.0000
  C   C53       1.0  0.09145  0.67327  0.33338  1.0000
  C   C54       1.0  0.17118  0.71871  0.32359  1.0000
  C   C55       1.0  0.20475  0.73714  0.23031  1.0000
  C   C56       1.0  0.15858  0.71014  0.14683  1.0000
  H   H14       1.0  0.98625  0.61263  0.25716  1.0000
  H   H15       1.0  0.06660  0.65963  0.40243  1.0000
  H   H16       1.0  0.20536  0.73870  0.38538  1.0000
  H   H17       1.0  0.26378  0.77078  0.22306  1.0000
  H   H18       1.0  0.18344  0.72378  0.07778  1.0000
  C   C57       1.0  0.02704  0.27764  0.56504  1.0000
  C   C58       1.0  0.10518  0.28454  0.62368  1.0000
  C   C59       1.0  0.12372  0.37124  0.65895  1.0000
  C   C60       1.0  0.06412  0.45104  0.63558  1.0000
  C   C61       1.0  0.98598  0.44414  0.57694  1.0000
  C   C62       1.0  0.96743  0.35744  0.54167  1.0000
  H   H19       1.0  0.14930  0.22547  0.64097  1.0000
  H   H20       1.0  0.18157  0.37635  0.70236  1.0000
  H   H21       1.0  0.07785  0.51522  0.66169  1.0000
  H   H22       1.0  0.94185  0.50322  0.55964  1.0000
  H   H23       1.0  0.90958  0.35234  0.49826  1.0000
  H   H24       1.0  0.56390  0.96843  1.00000  1.0000
  C   C63       1.0  0.54213  0.20166  0.15642  1.0000
  C   C64       1.0  0.52455  0.16771  0.24975  1.0000
  C   C65       1.0  0.55175  0.21389  0.33314  1.0000
  C   C66       1.0  0.59654  0.29402  0.32319  1.0000
  C   C67       1.0  0.61413  0.32798  0.22986  1.0000
  C   C68       1.0  0.58692  0.28179  0.14648  1.0000
  H   H25       1.0  0.49139  0.10838  0.25711  1.0000
  H   H26       1.0  0.53874  0.18875  0.40223  1.0000
  H   H27       1.0  0.61668  0.32821  0.38492  1.0000
  H   H28       1.0  0.64728  0.38730  0.22250  1.0000
  H   H29       1.0  0.59994  0.30693  0.07738  1.0000
  H   H30       1.0  0.85218  0.08496  0.55585  1.0000
  C   C69       1.0  0.90557  0.56518  0.84371  1.0000
  C   C70       1.0  0.93860  0.58418  0.75037  1.0000
  C   C71       1.0  0.89236  0.55705  0.66699  1.0000
  C   C72       1.0  0.81310  0.51090  0.67696  1.0000
  C   C73       1.0  0.78007  0.49190  0.77031  1.0000
  C   C74       1.0  0.82630  0.51904  0.85369  1.0000
  H   H31       1.0  0.99727  0.61834  0.74299  1.0000
  H   H32       1.0  0.91682  0.57111  0.59788  1.0000
  H   H33       1.0  0.77888  0.49081  0.61523  1.0000
  H   H34       1.0  0.72139  0.45774  0.77769  1.0000
  H   H35       1.0  0.80185  0.50497  0.92279  1.0000
  C   C75       1.0  0.12020  0.98726  0.56465  1.0000
  C   C76       1.0  0.21360  0.99147  0.54098  1.0000
  C   C77       1.0  0.28183  0.92335  0.57593  1.0000
  C   C78       1.0  0.25666  0.85101  0.63454  1.0000
  C   C79       1.0  0.16326  0.84679  0.65821  1.0000
  C   C80       1.0  0.09502  0.91492  0.62326  1.0000
  H   H36       1.0  0.23223  0.04503  0.49759  1.0000
  H   H37       1.0  0.35098  0.92647  0.55841  1.0000
  H   H38       1.0  0.30718  0.80058  0.66041  1.0000
  H   H39       1.0  0.14462  0.79324  0.70159  1.0000
  H   H40       1.0  0.02588  0.91179  0.64078  1.0000
  C   C81       1.0  0.86450  0.24280  0.43526  1.0000
  C   C82       1.0  0.85149  0.25482  0.33429  1.0000
  C   C83       1.0  0.78341  0.32298  0.29912  1.0000
  C   C84       1.0  0.72834  0.37913  0.36492  1.0000
  C   C85       1.0  0.74134  0.36711  0.46590  1.0000
  C   C86       1.0  0.80942  0.29895  0.50107  1.0000
  H   H41       1.0  0.89226  0.21325  0.28557  1.0000
  H   H42       1.0  0.77378  0.33188  0.22437  1.0000
  H   H43       1.0  0.67794  0.42958  0.33889  1.0000
  H   H44       1.0  0.70057  0.40867  0.51462  1.0000
  H   H45       1.0  0.81905  0.29005  0.57583  1.0000
  C   C87       1.0  0.95741  0.95243  0.43511  1.0000
  C   C88       1.0  0.94144  0.88184  0.50083  1.0000
  C   C89       1.0  0.92284  0.79516  0.46555  1.0000
  C   C90       1.0  0.92020  0.77908  0.36456  1.0000
  C   C91       1.0  0.93616  0.84968  0.29883  1.0000
  C   C92       1.0  0.95477  0.93636  0.33411  1.0000
  H   H46       1.0  0.94340  0.89373  0.57559  1.0000
  H   H47       1.0  0.91102  0.74290  0.51420  1.0000
  H   H48       1.0  0.90642  0.71492  0.33844  1.0000
  H   H49       1.0  0.93421  0.83778  0.22407  1.0000
  H   H50       1.0  0.96659  0.98862  0.28546  1.0000
  C   C93       1.0  0.44242  0.02833  0.15644  1.0000
  C   C94       1.0  0.47663  0.93532  0.17246  1.0000
  C   C95       1.0  0.44949  0.88909  0.25584  1.0000
  C   C96       1.0  0.38814  0.93586  0.32319  1.0000
  C   C97       1.0  0.35392  0.02888  0.30717  1.0000
  C   C98       1.0  0.38106  0.07511  0.22379  1.0000
  H   H51       1.0  0.52205  0.90070  0.12260  1.0000
  H   H52       1.0  0.47482  0.82024  0.26770  1.0000
  H   H53       1.0  0.36804  0.90164  0.38491  1.0000
  H   H54       1.0  0.30850  0.06350  0.35703  1.0000
  H   H55       1.0  0.35574  0.14396  0.21194  1.0000
  H   H56       1.0  0.91753  0.57223  0.13479  1.0000
  C   C99       1.0  0.82209  0.69834  0.00015  1.0000
  C   C100      1.0  0.74647  0.64623  0.00102  1.0000
  C   C101      1.0  0.65576  0.69124  0.00111  1.0000
  C   C102      1.0  0.64068  0.78835  0.00033  1.0000
  C   C103      1.0  0.71631  0.84047  0.99947  1.0000
  C   C104      1.0  0.80701  0.79546  0.99938  1.0000
  H   H57       1.0  0.75763  0.57433  0.00159  1.0000
  H   H58       1.0  0.59978  0.65265  0.00175  1.0000
  H   H59       1.0  0.57353  0.82167  0.00040  1.0000
  H   H60       1.0  0.70515  0.91236  0.99890  1.0000
  H   H61       1.0  0.86300  0.83404  0.99874  1.0000
  C   C105      1.0  0.07890  0.66488  0.84373  1.0000
  C   C106      1.0  0.17144  0.62950  0.82680  1.0000
  C   C107      1.0  0.21762  0.65670  0.74341  1.0000
  C   C108      1.0  0.17127  0.71928  0.67696  1.0000
  C   C109      1.0  0.07873  0.75466  0.69388  1.0000
  C   C110      1.0  0.03254  0.72746  0.77727  1.0000
  H   H62       1.0  0.20575  0.58318  0.87600  1.0000
  H   H63       1.0  0.28613  0.63051  0.73089  1.0000
  H   H64       1.0  0.20547  0.73941  0.61523  1.0000
  H   H65       1.0  0.04442  0.80099  0.64469  1.0000
  H   H66       1.0  0.96403  0.75366  0.78980  1.0000
