data_image0
_chemical_formula_structural       O7Zn2OC18NC6NC6HFHFH2FH3FH2FH2F2H2F3H5F3H5
_chemical_formula_sum              "O8 Zn2 C30 N2 H23 F13"
_cell_length_a       15.9954
_cell_length_b       10.5405
_cell_length_c       9.61615
_cell_angle_alpha    90.0001
_cell_angle_beta     90.0032
_cell_angle_gamma    84.0089

_space_group_name_H-M_alt    "P 1"
_space_group_IT_number       1

loop_
  _space_group_symop_operation_xyz
  'x, y, z'

loop_
  _atom_site_type_symbol
  _atom_site_label
  _atom_site_symmetry_multiplicity
  _atom_site_fract_x
  _atom_site_fract_y
  _atom_site_fract_z
  _atom_site_occupancy
  O   O1        1.0  0.88803  0.83639  0.88448  1.0000
  O   O2        1.0  0.13169  0.81618  0.88445  1.0000
  O   O3        1.0  0.00430  0.01107  0.88447  1.0000
  O   O4        1.0  0.01542  0.64150  0.88446  1.0000
  O   O5        1.0  0.00432  0.01106  0.11576  1.0000
  O   O6        1.0  0.13171  0.81618  0.11574  1.0000
  O   O7        1.0  0.88805  0.83638  0.11577  1.0000
  Zn  Zn1       1.0  0.00988  0.82628  0.15248  1.0000
  Zn  Zn2       1.0  0.00986  0.82629  0.84774  1.0000
  O   O8        1.0  0.01544  0.64150  0.11575  1.0000
  C   C1        1.0  0.00514  0.05836  0.00011  1.0000
  C   C2        1.0  0.00764  0.19927  0.00010  1.0000
  C   C3        1.0  0.16290  0.81702  0.00009  1.0000
  C   C4        1.0  0.25586  0.81952  0.00008  1.0000
  C   C5        1.0  0.85684  0.83555  0.00013  1.0000
  C   C6        1.0  0.76388  0.83305  0.00013  1.0000
  C   C7        1.0  0.59366  0.82851  0.00011  1.0000
  C   C8        1.0  0.54706  0.96731  0.00063  1.0000
  C   C9        1.0  0.45035  0.96480  0.00010  1.0000
  C   C10       1.0  0.42607  0.82405  0.00010  1.0000
  C   C11       1.0  0.46674  0.75560  0.86802  1.0000
  C   C12       1.0  0.56340  0.75908  0.86792  1.0000
  C   C13       1.0  0.56374  0.75621  0.13094  1.0000
  C   C14       1.0  0.46680  0.75624  0.13268  1.0000
  C   C15       1.0  0.33136  0.82152  0.00008  1.0000
  C   C16       1.0  0.68837  0.83104  0.00011  1.0000
  C   C17       1.0  0.01459  0.59421  0.00011  1.0000
  C   C18       1.0  0.01210  0.45330  0.00011  1.0000
  N   N1        1.0  0.00989  0.82628  0.36045  1.0000
  C   C19       1.0  0.10322  0.38138  0.99957  1.0000
  C   C20       1.0  0.10069  0.23480  0.00009  1.0000
  C   C21       1.0  0.96287  0.26154  0.13219  1.0000
  C   C22       1.0  0.96604  0.40804  0.13230  1.0000
  C   C23       1.0  0.96413  0.40859  0.86928  1.0000
  C   C24       1.0  0.96327  0.26162  0.86753  1.0000
  N   N2        1.0  0.00984  0.82630  0.63977  1.0000
  C   C25       1.0  0.07824  0.72237  0.58081  1.0000
  C   C26       1.0  0.07809  0.72199  0.41965  1.0000
  C   C27       1.0  0.92235  0.79735  0.41891  1.0000
  C   C28       1.0  0.92272  0.79661  0.58013  1.0000
  C   C29       1.0  0.02821  0.95946  0.58036  1.0000
  C   C30       1.0  0.03022  0.95857  0.41914  1.0000
  H   H1        1.0  0.42225  0.01861  0.09477  1.0000
  F   F1        1.0  0.14709  0.17958  0.12404  1.0000
  H   H2        1.0  0.45082  0.65360  0.14066  1.0000
  F   F2        1.0  0.16312  0.74445  0.36799  1.0000
  H   H3        1.0  0.45200  0.65219  0.86311  1.0000
  H   H4        1.0  0.59504  0.65718  0.86193  1.0000
  F   F3        1.0  0.06269  0.59281  0.36922  1.0000
  H   H5        1.0  0.43865  0.80315  0.76973  1.0000
  H   H6        1.0  0.99915  0.43578  0.23103  1.0000
  H   H7        1.0  0.58456  0.80158  0.23105  1.0000
  F   F4        1.0  0.43158  0.82166  0.26039  1.0000
  H   H8        1.0  0.59489  0.65388  0.13184  1.0000
  H   H9        1.0  0.56592  0.02278  0.09534  1.0000
  F   F5        1.0  0.87459  0.23118  0.85711  1.0000
  H   H10       1.0  0.13997  0.40948  0.90485  1.0000
  H   H11       1.0  0.13592  0.19171  0.90541  1.0000
  F   F6        1.0  0.87628  0.47153  0.86812  1.0000
  F   F7        1.0  0.15121  0.42063  0.12234  1.0000
  H   H12       1.0  0.89912  0.45693  0.13830  1.0000
  H   H13       1.0  0.56697  0.02253  0.90644  1.0000
  F   F8        1.0  0.87354  0.23355  0.13862  1.0000
  F   F9        1.0  0.00349  0.44928  0.73842  1.0000
  F   F10       1.0  0.96941  0.06439  0.36649  1.0000
  H   H14       1.0  0.97834  0.03680  0.61849  1.0000
  H   H15       1.0  0.99398  0.21851  0.23047  1.0000
  H   H16       1.0  0.09069  0.98729  0.62109  1.0000
  H   H17       1.0  0.99603  0.22032  0.76982  1.0000
  H   H18       1.0  0.14349  0.73933  0.61962  1.0000
  F   F11       1.0  0.41437  0.03533  0.87594  1.0000
  F   F12       1.0  0.58771  0.82434  0.73888  1.0000
  F   F13       1.0  0.06300  0.59393  0.63373  1.0000
  H   H19       1.0  0.90666  0.69950  0.61772  1.0000
  H   H20       1.0  0.87019  0.86932  0.61913  1.0000
  H   H21       1.0  0.87021  0.87103  0.38057  1.0000
  H   H22       1.0  0.90593  0.70134  0.37852  1.0000
  H   H23       1.0  0.09462  0.98053  0.38093  1.0000
