data_image0
_chemical_formula_structural       O7Cu2OC26N2C16H2ClHClH4ClH2ClH2ClHClHClH2Cl2
_chemical_formula_sum              "O8 Cu2 C42 N2 H15 Cl9"
_cell_length_a       19.2889
_cell_length_b       11.7922
_cell_length_c       17.7663
_cell_angle_alpha    89.9935
_cell_angle_beta     89.9898
_cell_angle_gamma    83.6636

_space_group_name_H-M_alt    "P 1"
_space_group_IT_number       1

loop_
  _space_group_symop_operation_xyz
  'x, y, z'

loop_
  _atom_site_type_symbol
  _atom_site_label
  _atom_site_symmetry_multiplicity
  _atom_site_fract_x
  _atom_site_fract_y
  _atom_site_fract_z
  _atom_site_occupancy
  O   O1        1.0  0.92216  0.14155  0.93739  1.0000
  O   O2        1.0  0.72001  0.16066  0.93739  1.0000
  O   O3        1.0  0.82599  0.98586  0.93740  1.0000
  O   O4        1.0  0.81618  0.31635  0.93739  1.0000
  O   O5        1.0  0.82597  0.98585  0.06259  1.0000
  O   O6        1.0  0.71999  0.16065  0.06258  1.0000
  O   O7        1.0  0.92214  0.14154  0.06258  1.0000
  Cu  Cu1       1.0  0.82106  0.15109  0.07401  1.0000
  Cu  Cu2       1.0  0.82108  0.15110  0.92596  1.0000
  O   O8        1.0  0.81616  0.31634  0.06258  1.0000
  C   C1        1.0  0.69412  0.16004  0.99999  1.0000
  C   C2        1.0  0.61700  0.15820  0.99999  1.0000
  C   C3        1.0  0.05348  0.24830  0.99998  1.0000
  C   C4        1.0  0.12593  0.25004  0.99998  1.0000
  C   C5        1.0  0.17005  0.14748  0.99998  1.0000
  C   C6        1.0  0.14172  0.04316  0.99997  1.0000
  C   C7        1.0  0.06926  0.04143  0.99997  1.0000
  C   C8        1.0  0.29088  0.07098  0.04385  1.0000
  C   C9        1.0  0.36334  0.07272  0.04386  1.0000
  C   C10       1.0  0.39353  0.15283  0.99999  1.0000
  C   C11       1.0  0.35126  0.23122  0.95613  1.0000
  C   C12       1.0  0.27881  0.22948  0.95613  1.0000
  C   C13       1.0  0.24862  0.14935  0.99999  1.0000
  C   C14       1.0  0.50043  0.25902  0.99999  1.0000
  C   C15       1.0  0.57288  0.26076  0.99998  1.0000
  C   C16       1.0  0.58867  0.05388  0.99999  1.0000
  C   C17       1.0  0.51621  0.05215  0.99999  1.0000
  C   C18       1.0  0.47210  0.15472  0.99999  1.0000
  C   C19       1.0  0.82536  0.94357  0.99999  1.0000
  C   C20       1.0  0.82352  0.81759  0.99999  1.0000
  C   C21       1.0  0.82013  0.58692  0.99998  1.0000
  C   C22       1.0  0.82201  0.71528  0.99998  1.0000
  C   C23       1.0  0.94803  0.14216  0.99998  1.0000
  C   C24       1.0  0.02514  0.14400  0.99998  1.0000
  C   C25       1.0  0.81679  0.35862  0.99998  1.0000
  C   C26       1.0  0.81863  0.48461  0.99997  1.0000
  N   N1        1.0  0.82105  0.15108  0.17814  1.0000
  N   N2        1.0  0.82110  0.15110  0.82183  1.0000
  C   C27       1.0  0.86800  0.07372  0.21753  1.0000
  C   C28       1.0  0.86800  0.07372  0.29633  1.0000
  C   C29       1.0  0.82107  0.15109  0.33574  1.0000
  C   C30       1.0  0.77411  0.22846  0.29634  1.0000
  C   C31       1.0  0.77411  0.22846  0.21754  1.0000
  C   C32       1.0  0.81236  0.25451  0.46058  1.0000
  C   C33       1.0  0.81237  0.25451  0.53938  1.0000
  C   C34       1.0  0.82109  0.15111  0.57879  1.0000
  C   C35       1.0  0.82981  0.04769  0.53939  1.0000
  C   C36       1.0  0.82980  0.04769  0.46059  1.0000
  C   C37       1.0  0.82107  0.15111  0.42119  1.0000
  C   C38       1.0  0.86804  0.07373  0.70362  1.0000
  C   C39       1.0  0.86804  0.07372  0.78243  1.0000
  C   C40       1.0  0.77415  0.22848  0.78244  1.0000
  C   C41       1.0  0.77415  0.22848  0.70363  1.0000
  C   C42       1.0  0.82110  0.15110  0.66423  1.0000
  H   H1        1.0  0.04620  0.95649  0.99996  1.0000
  H   H2        1.0  0.90622  0.01072  0.18545  1.0000
  Cl  Cl1       1.0  0.84077  0.91769  0.58893  1.0000
  H   H3        1.0  0.90626  0.01073  0.67154  1.0000
  Cl  Cl2       1.0  0.48060  0.92102  0.99998  1.0000
  H   H4        1.0  0.90626  0.01072  0.81450  1.0000
  H   H5        1.0  0.24439  0.29330  0.92041  1.0000
  H   H6        1.0  0.80527  0.33872  0.57144  1.0000
  H   H7        1.0  0.01756  0.33182  0.99999  1.0000
  Cl  Cl3       1.0  0.16156  0.38117  0.99999  1.0000
  H   H8        1.0  0.26631  0.00574  0.07957  1.0000
  H   H9        1.0  0.17765  0.95966  0.99997  1.0000
  Cl  Cl4       1.0  0.71515  0.32575  0.83197  1.0000
  H   H10       1.0  0.73593  0.29148  0.67156  1.0000
  H   H11       1.0  0.37584  0.29645  0.92041  1.0000
  Cl  Cl5       1.0  0.80146  0.38451  0.41104  1.0000
  H   H12       1.0  0.73588  0.29146  0.18547  1.0000
  Cl  Cl6       1.0  0.44496  0.38797  1.00000  1.0000
  H   H13       1.0  0.73590  0.29146  0.32843  1.0000
  Cl  Cl7       1.0  0.60850  0.39189  0.99998  1.0000
  H   H14       1.0  0.83690  0.96349  0.42852  1.0000
  H   H15       1.0  0.39775  0.00890  0.07958  1.0000
  Cl  Cl8       1.0  0.64413  0.92494  0.99998  1.0000
  Cl  Cl9       1.0  0.92702  0.97645  0.34586  1.0000
