data_image0
_chemical_formula_structural       O7Zn2OC4ONCOC10NC11O2C20N2C4HNH2NH2NH2NH2NH4NH2NH2NH4NH3NH2NH2NH2NH3NH3NH3
_chemical_formula_sum              "O12 Zn2 C50 N19 H39"
_cell_length_a       27.732
_cell_length_b       10.6546
_cell_length_c       9.73022
_cell_angle_alpha    90.0049
_cell_angle_beta     90.0114
_cell_angle_gamma    96.4484

_space_group_name_H-M_alt    "P 1"
_space_group_IT_number       1

loop_
  _space_group_symop_operation_xyz
  'x, y, z'

loop_
  _atom_site_type_symbol
  _atom_site_label
  _atom_site_symmetry_multiplicity
  _atom_site_fract_x
  _atom_site_fract_y
  _atom_site_fract_z
  _atom_site_occupancy
  O   O1        1.0  0.35813  0.14906  0.11391  1.0000
  O   O2        1.0  0.49878  0.17186  0.11399  1.0000
  O   O3        1.0  0.42522  0.97758  0.11394  1.0000
  O   O4        1.0  0.43169  0.34334  0.11396  1.0000
  O   O5        1.0  0.42522  0.97757  0.88536  1.0000
  O   O6        1.0  0.49879  0.17185  0.88541  1.0000
  O   O7        1.0  0.35813  0.14905  0.88533  1.0000
  Zn  Zn1       1.0  0.42846  0.16045  0.84908  1.0000
  Zn  Zn2       1.0  0.42846  0.16046  0.15024  1.0000
  O   O8        1.0  0.43169  0.34333  0.88538  1.0000
  C   C1        1.0  0.51680  0.17139  0.99972  1.0000
  C   C2        1.0  0.57046  0.16998  0.99975  1.0000
  C   C3        1.0  0.95368  0.15979  0.12429  1.0000
  C   C4        1.0  0.75199  0.16515  0.12432  1.0000
  O   O9        1.0  0.72591  0.16580  0.23029  1.0000
  N   N1        1.0  0.72677  0.16582  0.99972  1.0000
  C   C5        1.0  0.75197  0.16514  0.87511  1.0000
  O   O10       1.0  0.72589  0.16581  0.76913  1.0000
  C   C6        1.0  0.95366  0.15977  0.87508  1.0000
  C   C7        1.0  0.97888  0.15911  0.99968  1.0000
  C   C8        1.0  0.97891  0.15914  0.24888  1.0000
  C   C9        1.0  0.02933  0.15781  0.24887  1.0000
  C   C10       1.0  0.05452  0.15713  0.12427  1.0000
  C   C11       1.0  0.02930  0.15778  0.99967  1.0000
  C   C12       1.0  0.97886  0.15907  0.75047  1.0000
  C   C13       1.0  0.02929  0.15773  0.75047  1.0000
  C   C14       1.0  0.05451  0.15708  0.87507  1.0000
  C   C15       1.0  0.10492  0.15577  0.87506  1.0000
  N   N2        1.0  0.13015  0.15510  0.99965  1.0000
  C   C16       1.0  0.10495  0.15578  0.12426  1.0000
  C   C17       1.0  0.64608  0.16796  0.87514  1.0000
  C   C18       1.0  0.59566  0.16930  0.87514  1.0000
  C   C19       1.0  0.59568  0.16932  0.12435  1.0000
  C   C20       1.0  0.64611  0.16798  0.12435  1.0000
  C   C21       1.0  0.67130  0.16729  0.99973  1.0000
  C   C22       1.0  0.21083  0.15298  0.12423  1.0000
  C   C23       1.0  0.26126  0.15166  0.12421  1.0000
  C   C24       1.0  0.26123  0.15163  0.87500  1.0000
  C   C25       1.0  0.21081  0.15297  0.87502  1.0000
  C   C26       1.0  0.18561  0.15364  0.99965  1.0000
  O   O11       1.0  0.13103  0.15511  0.76915  1.0000
  O   O12       1.0  0.13104  0.15508  0.23022  1.0000
  C   C27       1.0  0.90326  0.16113  0.12430  1.0000
  C   C28       1.0  0.87804  0.16178  0.99970  1.0000
  C   C29       1.0  0.90324  0.16110  0.87510  1.0000
  C   C30       1.0  0.82762  0.16312  0.99971  1.0000
  C   C31       1.0  0.80242  0.16380  0.12431  1.0000
  C   C32       1.0  0.82765  0.16314  0.24891  1.0000
  C   C33       1.0  0.87807  0.16180  0.24890  1.0000
  C   C34       1.0  0.87802  0.16177  0.75050  1.0000
  C   C35       1.0  0.82760  0.16310  0.75052  1.0000
  C   C36       1.0  0.80240  0.16378  0.87513  1.0000
  C   C37       1.0  0.42570  0.93080  0.99965  1.0000
  C   C38       1.0  0.42712  0.79142  0.99965  1.0000
  C   C39       1.0  0.38381  0.71009  0.99963  1.0000
  C   C40       1.0  0.38514  0.57912  0.99965  1.0000
  C   C41       1.0  0.47311  0.61083  0.99971  1.0000
  C   C42       1.0  0.47177  0.74179  0.99970  1.0000
  C   C43       1.0  0.34012  0.14954  0.99962  1.0000
  C   C44       1.0  0.28646  0.15098  0.99960  1.0000
  C   C45       1.0  0.43122  0.39011  0.99967  1.0000
  C   C46       1.0  0.42979  0.52949  0.99968  1.0000
  N   N3        1.0  0.42846  0.16046  0.35578  1.0000
  N   N4        1.0  0.42845  0.16044  0.64354  1.0000
  C   C47       1.0  0.39582  0.07460  0.42768  1.0000
  C   C48       1.0  0.39582  0.07459  0.57156  1.0000
  C   C49       1.0  0.46109  0.24631  0.57163  1.0000
  C   C50       1.0  0.46109  0.24632  0.42775  1.0000
  H   H1        1.0  0.04986  0.15727  0.35034  1.0000
  N   N5        1.0  0.33565  0.76361  0.99958  1.0000
  H   H2        1.0  0.33313  0.81725  0.08431  1.0000
  H   H3        1.0  0.33316  0.81716  0.91478  1.0000
  N   N6        1.0  0.36062  0.98201  0.35005  1.0000
  H   H4        1.0  0.33994  0.92762  0.41744  1.0000
  H   H5        1.0  0.33913  0.02982  0.29036  1.0000
  N   N7        1.0  0.36062  0.98199  0.64912  1.0000
  H   H6        1.0  0.33995  0.92760  0.58169  1.0000
  H   H7        1.0  0.37926  0.92671  0.70882  1.0000
  N   N8        1.0  0.49629  0.33891  0.64926  1.0000
  H   H8        1.0  0.49134  0.32587  0.75132  1.0000
  H   H9        1.0  0.53061  0.32486  0.62412  1.0000
  N   N9        1.0  0.52127  0.55730  0.99974  1.0000
  H   H10       1.0  0.54026  0.58702  0.91502  1.0000
  H   H11       1.0  0.54022  0.58704  0.08454  1.0000
  H   H12       1.0  0.50704  0.80802  0.99973  1.0000
  H   H13       1.0  0.48767  0.31625  0.36920  1.0000
  N   N10       1.0  0.28846  0.15095  0.25861  1.0000
  H   H14       1.0  0.26484  0.15158  0.33754  1.0000
  H   H15       1.0  0.30572  0.07252  0.26403  1.0000
  N   N11       1.0  0.18367  0.15371  0.25865  1.0000
  H   H16       1.0  0.16641  0.23214  0.26422  1.0000
  H   H17       1.0  0.15911  0.07635  0.26415  1.0000
  N   N12       1.0  0.95173  0.15986  0.38329  1.0000
  H   H18       1.0  0.97537  0.15924  0.46220  1.0000
  H   H19       1.0  0.93448  0.23829  0.38873  1.0000
  H   H20       1.0  0.66664  0.16745  0.22581  1.0000
  H   H21       1.0  0.57516  0.16987  0.22581  1.0000
  N   N13       1.0  0.56846  0.17004  0.74075  1.0000
  H   H22       1.0  0.59208  0.16940  0.66182  1.0000
  H   H23       1.0  0.54387  0.09272  0.73531  1.0000
  H   H24       1.0  0.66659  0.16739  0.77366  1.0000
  N   N14       1.0  0.33843  0.49140  0.99961  1.0000
  H   H25       1.0  0.31897  0.50727  0.08433  1.0000
  H   H26       1.0  0.31901  0.50729  0.91480  1.0000
  N   N15       1.0  0.95167  0.15976  0.61606  1.0000
  H   H27       1.0  0.92709  0.08244  0.61050  1.0000
  H   H28       1.0  0.93444  0.23824  0.61056  1.0000
  N   N16       1.0  0.05646  0.15698  0.61606  1.0000
  H   H29       1.0  0.03279  0.15676  0.53714  1.0000
  H   H30       1.0  0.08082  0.23472  0.61022  1.0000
  N   N17       1.0  0.18360  0.15368  0.74063  1.0000
  H   H31       1.0  0.16634  0.23211  0.73508  1.0000
  H   H32       1.0  0.20724  0.15301  0.66177  1.0000
  H   H33       1.0  0.89860  0.16127  0.35037  1.0000
  N   N18       1.0  0.28841  0.15091  0.74061  1.0000
  H   H34       1.0  0.32425  0.15165  0.75951  1.0000
  H   H35       1.0  0.27638  0.07241  0.68700  1.0000
  H   H36       1.0  0.80706  0.16364  0.64905  1.0000
  N   N19       1.0  0.80047  0.16387  0.38331  1.0000
  H   H37       1.0  0.78321  0.24229  0.38887  1.0000
  H   H38       1.0  0.77591  0.08649  0.38877  1.0000
  H   H39       1.0  0.89853  0.16121  0.64903  1.0000
