data_image0
_chemical_formula_structural       O7Zn2OC18N2C8HFHFH2FH5
_chemical_formula_sum              "O8 Zn2 C26 N2 H9 F3"
_cell_length_a       16.1093
_cell_length_b       11.0266
_cell_length_c       15.1862
_cell_angle_alpha    89.9982
_cell_angle_beta     89.9994
_cell_angle_gamma    96.0237

_space_group_name_H-M_alt    "P 1"
_space_group_IT_number       1

loop_
  _space_group_symop_operation_xyz
  'x, y, z'

loop_
  _atom_site_type_symbol
  _atom_site_label
  _atom_site_symmetry_multiplicity
  _atom_site_fract_x
  _atom_site_fract_y
  _atom_site_fract_z
  _atom_site_occupancy
  O   O1        1.0  0.12650  0.15597  0.92683  1.0000
  O   O2        1.0  0.88735  0.17538  0.92682  1.0000
  O   O3        1.0  0.98711  0.98903  0.92683  1.0000
  O   O4        1.0  0.02675  0.34232  0.92682  1.0000
  O   O5        1.0  0.98710  0.98903  0.07328  1.0000
  O   O6        1.0  0.88734  0.17538  0.07327  1.0000
  O   O7        1.0  0.12649  0.15597  0.07329  1.0000
  Zn  Zn1       1.0  0.00692  0.16567  0.09653  1.0000
  Zn  Zn2       1.0  0.00693  0.16568  0.90357  1.0000
  O   O8        1.0  0.02674  0.34232  0.07328  1.0000
  C   C1        1.0  0.85625  0.17459  0.00004  1.0000
  C   C2        1.0  0.76360  0.17224  0.00004  1.0000
  C   C3        1.0  0.97979  0.94382  0.00005  1.0000
  C   C4        1.0  0.95799  0.80912  0.00005  1.0000
  C   C5        1.0  0.55708  0.27733  0.00005  1.0000
  C   C6        1.0  0.47003  0.27511  0.00005  1.0000
  C   C7        1.0  0.45677  0.05401  0.00005  1.0000
  C   C8        1.0  0.54382  0.05624  0.00005  1.0000
  C   C9        1.0  0.59397  0.16790  0.00005  1.0000
  C   C10       1.0  0.41987  0.16345  0.00005  1.0000
  C   C11       1.0  0.32548  0.16104  0.00006  1.0000
  C   C12       1.0  0.68837  0.17031  0.00004  1.0000
  C   C13       1.0  0.01818  0.73529  0.00005  1.0000
  C   C14       1.0  0.99565  0.59606  0.00005  1.0000
  C   C15       1.0  0.15759  0.15676  0.00006  1.0000
  C   C16       1.0  0.25024  0.15911  0.00006  1.0000
  C   C17       1.0  0.03406  0.38753  0.00005  1.0000
  C   C18       1.0  0.05586  0.52223  0.00005  1.0000
  N   N1        1.0  0.00691  0.16567  0.22823  1.0000
  N   N2        1.0  0.00693  0.16567  0.77188  1.0000
  C   C19       1.0  0.05111  0.08318  0.45395  1.0000
  C   C20       1.0  0.05111  0.08318  0.54614  1.0000
  C   C21       1.0  0.96273  0.24816  0.54614  1.0000
  C   C22       1.0  0.96273  0.24816  0.45396  1.0000
  C   C23       1.0  0.00692  0.16567  0.40786  1.0000
  C   C24       1.0  0.00693  0.16567  0.59224  1.0000
  C   C25       1.0  0.00693  0.16567  0.69220  1.0000
  C   C26       1.0  0.00692  0.16567  0.30790  1.0000
  H   H1        1.0  0.59791  0.36826  0.00005  1.0000
  F   F1        1.0  0.58309  0.93976  0.00006  1.0000
  H   H2        1.0  0.88977  0.76925  0.00004  1.0000
  F   F2        1.0  0.09814  0.99539  0.40490  1.0000
  H   H3        1.0  0.12408  0.56209  0.99999  1.0000
  H   H4        1.0  0.08709  0.01601  0.58367  1.0000
  F   F3        1.0  0.90648  0.54397  0.00003  1.0000
  H   H5        1.0  0.92675  0.31533  0.58368  1.0000
  H   H6        1.0  0.43999  0.36422  0.00006  1.0000
  H   H7        1.0  0.08640  0.77515  0.00006  1.0000
  H   H8        1.0  0.92674  0.31533  0.41643  1.0000
  H   H9        1.0  0.41592  0.96310  0.00006  1.0000
