data_image0
_chemical_formula_structural       O14Zn4O2C22N4C2N4C16N2C16N2C16H4N2H6N2H4N2H4N2H4N2H4N2H4N2H8N2H4N2H6N2H4
_chemical_formula_sum              "O16 Zn4 C72 N32 H52"
_cell_length_a       19.1889
_cell_length_b       16.1093
_cell_length_c       15.1862
_cell_angle_alpha    90.0052
_cell_angle_beta     90.0172
_cell_angle_gamma    83.3031

_space_group_name_H-M_alt    "P 1"
_space_group_IT_number       1

loop_
  _space_group_symop_operation_xyz
  'x, y, z'

loop_
  _atom_site_type_symbol
  _atom_site_label
  _atom_site_symmetry_multiplicity
  _atom_site_fract_x
  _atom_site_fract_y
  _atom_site_fract_z
  _atom_site_occupancy
  O   O1        1.0  0.07361  0.89620  0.92649  1.0000
  O   O2        1.0  0.57361  0.39620  0.42649  1.0000
  O   O3        1.0  0.27689  0.88223  0.92655  1.0000
  O   O4        1.0  0.77689  0.38223  0.42655  1.0000
  O   O5        1.0  0.16967  0.01027  0.92652  1.0000
  O   O6        1.0  0.66967  0.51027  0.42652  1.0000
  O   O7        1.0  0.18084  0.76817  0.92651  1.0000
  O   O8        1.0  0.68084  0.26817  0.42651  1.0000
  O   O9        1.0  0.16968  0.01027  0.07298  1.0000
  O   O10       1.0  0.66968  0.51027  0.57298  1.0000
  O   O11       1.0  0.27690  0.88223  0.07300  1.0000
  O   O12       1.0  0.77690  0.38223  0.57300  1.0000
  O   O13       1.0  0.07362  0.89620  0.07294  1.0000
  O   O14       1.0  0.57362  0.39620  0.57294  1.0000
  Zn  Zn1       1.0  0.17526  0.88922  0.09623  1.0000
  Zn  Zn2       1.0  0.67526  0.38922  0.59623  1.0000
  Zn  Zn3       1.0  0.17525  0.88922  0.90326  1.0000
  Zn  Zn4       1.0  0.67525  0.38922  0.40326  1.0000
  O   O15       1.0  0.18084  0.76817  0.07297  1.0000
  O   O16       1.0  0.68084  0.26817  0.57296  1.0000
  C   C1        1.0  0.17012  0.04124  0.99975  1.0000
  C   C2        1.0  0.67013  0.54124  0.49975  1.0000
  C   C3        1.0  0.17148  0.13353  0.99975  1.0000
  C   C4        1.0  0.67148  0.63353  0.49975  1.0000
  C   C5        1.0  0.30291  0.88268  0.99978  1.0000
  C   C6        1.0  0.80291  0.38268  0.49978  1.0000
  C   C7        1.0  0.38042  0.88404  0.99981  1.0000
  C   C8        1.0  0.88042  0.38404  0.49980  1.0000
  C   C9        1.0  0.04761  0.89575  0.99970  1.0000
  C   C10       1.0  0.54761  0.39575  0.49970  1.0000
  C   C11       1.0  0.97010  0.89439  0.99967  1.0000
  C   C12       1.0  0.47010  0.39439  0.49968  1.0000
  C   C13       1.0  0.42516  0.80891  0.99979  1.0000
  C   C14       1.0  0.92516  0.30891  0.49979  1.0000
  C   C15       1.0  0.49799  0.81019  0.99978  1.0000
  C   C16       1.0  0.99799  0.31019  0.49978  1.0000
  C   C17       1.0  0.52607  0.88660  0.99977  1.0000
  C   C18       1.0  0.02607  0.38660  0.49977  1.0000
  C   C19       1.0  0.48131  0.96174  0.99979  1.0000
  C   C20       1.0  0.98131  0.46174  0.49979  1.0000
  C   C21       1.0  0.40848  0.96046  0.99981  1.0000
  C   C22       1.0  0.90848  0.46046  0.49981  1.0000
  N   N1        1.0  0.63418  0.94500  0.94989  1.0000
  N   N2        1.0  0.13418  0.44500  0.44989  1.0000
  N   N3        1.0  0.70336  0.94621  0.94987  1.0000
  N   N4        1.0  0.20336  0.44621  0.44987  1.0000
  C   C23       1.0  0.74548  0.89045  0.99972  1.0000
  C   C24       1.0  0.24548  0.39045  0.49972  1.0000
  N   N5        1.0  0.71581  0.83343  0.04957  1.0000
  N   N6        1.0  0.21581  0.33343  0.54957  1.0000
  N   N7        1.0  0.64663  0.83222  0.04958  1.0000
  N   N8        1.0  0.14663  0.33222  0.54958  1.0000
  C   C25       1.0  0.60503  0.88799  0.99975  1.0000
  C   C26       1.0  0.10503  0.38799  0.49975  1.0000
  C   C27       1.0  0.86920  0.81671  0.99969  1.0000
  C   C28       1.0  0.36920  0.31671  0.49969  1.0000
  C   C29       1.0  0.94203  0.81798  0.99968  1.0000
  C   C30       1.0  0.44203  0.31798  0.49968  1.0000
  C   C31       1.0  0.92534  0.96953  0.99969  1.0000
  C   C32       1.0  0.42534  0.46953  0.49969  1.0000
  C   C33       1.0  0.85252  0.96825  0.99970  1.0000
  C   C34       1.0  0.35252  0.46825  0.49970  1.0000
  C   C35       1.0  0.82445  0.89183  0.99970  1.0000
  C   C36       1.0  0.32445  0.39183  0.49970  1.0000
  C   C37       1.0  0.18039  0.73719  0.99973  1.0000
  C   C38       1.0  0.68039  0.23719  0.49973  1.0000
  C   C39       1.0  0.17903  0.64490  0.99973  1.0000
  C   C40       1.0  0.67903  0.14490  0.49973  1.0000
  N   N9        1.0  0.17526  0.88922  0.22792  1.0000
  N   N10       1.0  0.67526  0.38922  0.72792  1.0000
  C   C41       1.0  0.11101  0.35600  0.99972  1.0000
  C   C42       1.0  0.61101  0.85600  0.49972  1.0000
  C   C43       1.0  0.11229  0.44272  0.99972  1.0000
  C   C44       1.0  0.61229  0.94272  0.49972  1.0000
  C   C45       1.0  0.23951  0.42242  0.99976  1.0000
  C   C46       1.0  0.73951  0.92242  0.49976  1.0000
  C   C47       1.0  0.23823  0.33571  0.99976  1.0000
  C   C48       1.0  0.73823  0.83571  0.49976  1.0000
  C   C49       1.0  0.17398  0.30250  0.99974  1.0000
  C   C50       1.0  0.67398  0.80250  0.49974  1.0000
  C   C51       1.0  0.17654  0.47593  0.99974  1.0000
  C   C52       1.0  0.67654  0.97593  0.49974  1.0000
  C   C53       1.0  0.17792  0.56995  0.99973  1.0000
  C   C54       1.0  0.67792  0.06995  0.49973  1.0000
  C   C55       1.0  0.17259  0.20847  0.99975  1.0000
  C   C56       1.0  0.67259  0.70847  0.49975  1.0000
  N   N11       1.0  0.17525  0.88922  0.77157  1.0000
  N   N12       1.0  0.67525  0.38922  0.27157  1.0000
  C   C57       1.0  0.12777  0.94590  0.45363  1.0000
  C   C58       1.0  0.62777  0.44590  0.95363  1.0000
  C   C59       1.0  0.12777  0.94590  0.54582  1.0000
  C   C60       1.0  0.62777  0.44590  0.04582  1.0000
  C   C61       1.0  0.22274  0.83254  0.54585  1.0000
  C   C62       1.0  0.72274  0.33254  0.04585  1.0000
  C   C63       1.0  0.22275  0.83255  0.45366  1.0000
  C   C64       1.0  0.72275  0.33255  0.95366  1.0000
  C   C65       1.0  0.17526  0.88922  0.40756  1.0000
  C   C66       1.0  0.67526  0.38922  0.90756  1.0000
  C   C67       1.0  0.17525  0.88922  0.59193  1.0000
  C   C68       1.0  0.67525  0.38922  0.09193  1.0000
  C   C69       1.0  0.17525  0.88922  0.69189  1.0000
  C   C70       1.0  0.67525  0.38922  0.19189  1.0000
  C   C71       1.0  0.17526  0.88922  0.30759  1.0000
  C   C72       1.0  0.67526  0.38922  0.80759  1.0000
  H   H1        1.0  0.40232  0.74669  0.99978  1.0000
  H   H2        1.0  0.90232  0.24669  0.49978  1.0000
  H   H3        1.0  0.08910  0.99205  0.58333  1.0000
  H   H4        1.0  0.58910  0.49205  0.08333  1.0000
  N   N13       1.0  0.27397  0.77141  0.40395  1.0000
  N   N14       1.0  0.77397  0.27141  0.90395  1.0000
  H   H5        1.0  0.30487  0.80310  0.36573  1.0000
  H   H6        1.0  0.80487  0.30310  0.86573  1.0000
  H   H7        1.0  0.30400  0.73552  0.44720  1.0000
  H   H8        1.0  0.80400  0.23552  0.94720  1.0000
  H   H9        1.0  0.26141  0.78640  0.58340  1.0000
  H   H10       1.0  0.76141  0.28640  0.08340  1.0000
  N   N15       1.0  0.04438  0.50043  0.99969  1.0000
  N   N16       1.0  0.54438  0.00043  0.49969  1.0000
  H   H11       1.0  0.00348  0.46623  0.99968  1.0000
  H   H12       1.0  0.50348  0.96623  0.49968  1.0000
  H   H13       1.0  0.04214  0.53685  0.05398  1.0000
  H   H14       1.0  0.54214  0.03685  0.55398  1.0000
  N   N17       1.0  0.30615  0.27800  0.99979  1.0000
  N   N18       1.0  0.80615  0.77800  0.49979  1.0000
  H   H15       1.0  0.29558  0.21803  0.99979  1.0000
  H   H16       1.0  0.79558  0.71803  0.49979  1.0000
  H   H17       1.0  0.33415  0.28872  0.94551  1.0000
  H   H18       1.0  0.83415  0.78872  0.44551  1.0000
  N   N19       1.0  0.36022  0.04150  0.99982  1.0000
  N   N20       1.0  0.86022  0.54150  0.49982  1.0000
  H   H19       1.0  0.32961  0.04434  0.94554  1.0000
  H   H20       1.0  0.82961  0.54434  0.44554  1.0000
  H   H21       1.0  0.32970  0.04430  0.05416  1.0000
  H   H22       1.0  0.82970  0.54430  0.55416  1.0000
  N   N21       1.0  0.30880  0.45824  0.99979  1.0000
  N   N22       1.0  0.80880  0.95824  0.49979  1.0000
  H   H23       1.0  0.33639  0.43871  0.94550  1.0000
  H   H24       1.0  0.83639  0.93871  0.44550  1.0000
  H   H25       1.0  0.30001  0.52128  0.99982  1.0000
  H   H26       1.0  0.80001  0.02128  0.49982  1.0000
  N   N23       1.0  0.04171  0.32019  0.99970  1.0000
  N   N24       1.0  0.54172  0.82019  0.49970  1.0000
  H   H27       1.0  0.03835  0.28467  0.05400  1.0000
  H   H28       1.0  0.53835  0.78467  0.55400  1.0000
  H   H29       1.0  0.00206  0.36729  0.99965  1.0000
  H   H30       1.0  0.50206  0.86729  0.49965  1.0000
  N   N25       1.0  0.07655  0.00702  0.40390  1.0000
  N   N26       1.0  0.57655  0.50702  0.90390  1.0000
  H   H31       1.0  0.04646  0.04293  0.44708  1.0000
  H   H32       1.0  0.54646  0.54293  0.94708  1.0000
  H   H33       1.0  0.10327  0.04370  0.36567  1.0000
  H   H34       1.0  0.60327  0.54370  0.86567  1.0000
  H   H35       1.0  0.53443  0.74901  0.99977  1.0000
  H   H36       1.0  0.03443  0.24901  0.49977  1.0000
  H   H37       1.0  0.84635  0.75448  0.99970  1.0000
  H   H38       1.0  0.34635  0.25448  0.49970  1.0000
  N   N27       1.0  0.51159  0.04414  0.99979  1.0000
  N   N28       1.0  0.01159  0.54414  0.49979  1.0000
  H   H39       1.0  0.54141  0.04805  0.94549  1.0000
  H   H40       1.0  0.04141  0.54805  0.44549  1.0000
  H   H41       1.0  0.47215  0.09150  0.99984  1.0000
  H   H42       1.0  0.97215  0.59150  0.49984  1.0000
  N   N29       1.0  0.99030  0.73695  0.99973  1.0000
  N   N30       1.0  0.49030  0.23695  0.49973  1.0000
  H   H43       1.0  0.96146  0.68835  0.99975  1.0000
  H   H44       1.0  0.46146  0.18835  0.49975  1.0000
  H   H45       1.0  0.02088  0.73414  0.94546  1.0000
  H   H46       1.0  0.52088  0.23414  0.44545  1.0000
  H   H47       1.0  0.81608  0.02943  0.99971  1.0000
  H   H48       1.0  0.31608  0.52943  0.49971  1.0000
  N   N31       1.0  0.95561  0.05195  0.99969  1.0000
  N   N32       1.0  0.45561  0.55195  0.49969  1.0000
  H   H49       1.0  0.00854  0.04136  0.99968  1.0000
  H   H50       1.0  0.50854  0.54136  0.49968  1.0000
  H   H51       1.0  0.93922  0.08481  0.94540  1.0000
  H   H52       1.0  0.43922  0.58481  0.44540  1.0000
