data_image0
_chemical_formula_structural       O7Zn2OC22N2C4H4N2HN2H2N2HN2HN2H2N2H
_chemical_formula_sum              "O8 Zn2 C26 N14 H12"
_cell_length_a       14.5197
_cell_length_b       15.9954
_cell_length_c       13.5964
_cell_angle_alpha    89.9962
_cell_angle_beta     90.0003
_cell_angle_gamma    83.5863

_space_group_name_H-M_alt    "P 1"
_space_group_IT_number       1

loop_
  _space_group_symop_operation_xyz
  'x, y, z'

loop_
  _atom_site_type_symbol
  _atom_site_label
  _atom_site_symmetry_multiplicity
  _atom_site_fract_x
  _atom_site_fract_y
  _atom_site_fract_z
  _atom_site_occupancy
  O   O1        1.0  0.22367  0.10976  0.91834  1.0000
  O   O2        1.0  0.95517  0.12269  0.91831  1.0000
  O   O3        1.0  0.09676  0.99435  0.91833  1.0000
  O   O4        1.0  0.08208  0.23810  0.91832  1.0000
  O   O5        1.0  0.09674  0.99434  0.08191  1.0000
  O   O6        1.0  0.95515  0.12268  0.08189  1.0000
  O   O7        1.0  0.22365  0.10975  0.08192  1.0000
  Zn  Zn1       1.0  0.08940  0.11621  0.10788  1.0000
  Zn  Zn2       1.0  0.08942  0.11622  0.89235  1.0000
  O   O8        1.0  0.08207  0.23809  0.08191  1.0000
  C   C1        1.0  0.92080  0.12208  0.00010  1.0000
  C   C2        1.0  0.81842  0.12028  0.00009  1.0000
  C   C3        1.0  0.44354  0.11363  0.00013  1.0000
  C   C4        1.0  0.54785  0.11547  0.00012  1.0000
  C   C5        1.0  0.63098  0.11695  0.00011  1.0000
  C   C6        1.0  0.73529  0.11880  0.00010  1.0000
  C   C7        1.0  0.09614  0.96315  0.00012  1.0000
  C   C8        1.0  0.09432  0.87019  0.00011  1.0000
  C   C9        1.0  0.08779  0.53244  0.00011  1.0000
  C   C10       1.0  0.98695  0.57972  0.99974  1.0000
  C   C11       1.0  0.98877  0.67641  0.00011  1.0000
  C   C12       1.0  0.09103  0.70000  0.00011  1.0000
  C   C13       1.0  0.14076  0.65899  0.09353  1.0000
  C   C14       1.0  0.13823  0.56236  0.09361  1.0000
  C   C15       1.0  0.14033  0.56201  0.90758  1.0000
  C   C16       1.0  0.14030  0.65895  0.90635  1.0000
  C   C17       1.0  0.09287  0.79470  0.00011  1.0000
  C   C18       1.0  0.08596  0.43774  0.00012  1.0000
  C   C19       1.0  0.25802  0.11036  0.00013  1.0000
  C   C20       1.0  0.36040  0.11216  0.00014  1.0000
  C   C21       1.0  0.08268  0.26929  0.00012  1.0000
  C   C22       1.0  0.08450  0.36224  0.00012  1.0000
  N   N1        1.0  0.08940  0.11621  0.25497  1.0000
  N   N2        1.0  0.08943  0.11622  0.74526  1.0000
  C   C23       1.0  0.08942  0.11622  0.65626  1.0000
  C   C24       1.0  0.08941  0.11622  0.54461  1.0000
  C   C25       1.0  0.08941  0.11622  0.45562  1.0000
  C   C26       1.0  0.08940  0.11621  0.34396  1.0000
  H   H1        1.0  0.94968  0.70478  0.93314  1.0000
  H   H2        1.0  0.10621  0.68732  0.16304  1.0000
  H   H3        1.0  0.94666  0.56113  0.93274  1.0000
  H   H4        1.0  0.10736  0.54142  0.83678  1.0000
  N   N3        1.0  0.93941  0.71130  0.08426  1.0000
  N   N4        1.0  0.97996  0.75119  0.14687  1.0000
  H   H5        1.0  0.94510  0.77583  0.20630  1.0000
  N   N5        1.0  0.23359  0.52230  0.90677  1.0000
  N   N6        1.0  0.28732  0.53747  0.83886  1.0000
  H   H6        1.0  0.35319  0.50943  0.83829  1.0000
  H   H7        1.0  0.94682  0.56006  0.06635  1.0000
  N   N7        1.0  0.09272  0.53933  0.18121  1.0000
  N   N8        1.0  0.06305  0.59461  0.24186  1.0000
  H   H8        1.0  0.03091  0.57835  0.30372  1.0000
  N   N9        1.0  0.23110  0.52205  0.09895  1.0000
  N   N10       1.0  0.29758  0.56531  0.10261  1.0000
  H   H9        1.0  0.36317  0.53685  0.10638  1.0000
  N   N11       1.0  0.23501  0.67686  0.09789  1.0000
  N   N12       1.0  0.26665  0.72011  0.03203  1.0000
  H   H10       1.0  0.33321  0.73273  0.03510  1.0000
  H   H11       1.0  0.10394  0.68615  0.83724  1.0000
  N   N13       1.0  0.23385  0.67837  0.89930  1.0000
  N   N14       1.0  0.29033  0.65656  0.96639  1.0000
  H   H12       1.0  0.35641  0.67028  0.96142  1.0000
