data_image0
_chemical_formula_structural       O7Cu2OC28N2C16H3Cl4H2ClH3ClHCl4H4ClH2Cl2H3ClHCl
_chemical_formula_sum              "O8 Cu2 C44 N2 H19 Cl15"
_cell_length_a       15.9954
_cell_length_b       15.9953
_cell_length_c       14.1856
_cell_angle_alpha    76.8511
_cell_angle_beta     103.158
_cell_angle_gamma    83.4805

_space_group_name_H-M_alt    "P 1"
_space_group_IT_number       1

loop_
  _space_group_symop_operation_xyz
  'x, y, z'

loop_
  _atom_site_type_symbol
  _atom_site_label
  _atom_site_symmetry_multiplicity
  _atom_site_fract_x
  _atom_site_fract_y
  _atom_site_fract_z
  _atom_site_occupancy
  O   O1        1.0  0.09199  0.12689  0.91667  1.0000
  O   O2        1.0  0.84820  0.14023  0.91665  1.0000
  O   O3        1.0  0.97678  0.01167  0.91666  1.0000
  O   O4        1.0  0.96341  0.25545  0.91666  1.0000
  O   O5        1.0  0.01477  0.97370  0.08350  1.0000
  O   O6        1.0  0.88619  0.10225  0.08349  1.0000
  O   O7        1.0  0.12997  0.08892  0.08351  1.0000
  Cu  Cu1       1.0  0.01155  0.09212  0.09873  1.0000
  Cu  Cu2       1.0  0.96663  0.13703  0.90143  1.0000
  O   O8        1.0  0.00139  0.21748  0.08350  1.0000
  C   C1        1.0  0.83600  0.12069  0.00007  1.0000
  C   C2        1.0  0.74305  0.11904  0.00006  1.0000
  C   C3        1.0  0.40531  0.11310  0.00008  1.0000
  C   C4        1.0  0.45284  0.02146  0.00045  1.0000
  C   C5        1.0  0.54945  0.02320  0.00007  1.0000
  C   C6        1.0  0.57286  0.11605  0.00007  1.0000
  C   C7        1.0  0.51008  0.18289  0.90480  1.0000
  C   C8        1.0  0.41343  0.18060  0.90473  1.0000
  C   C9        1.0  0.45628  0.13931  0.09446  1.0000
  C   C10       1.0  0.55351  0.13901  0.09571  1.0000
  C   C11       1.0  0.66756  0.11772  0.00006  1.0000
  C   C12       1.0  0.31061  0.11144  0.00009  1.0000
  C   C13       1.0  0.99523  0.96149  0.00008  1.0000
  C   C14       1.0  0.99360  0.86854  0.00007  1.0000
  C   C15       1.0  0.98760  0.53080  0.00008  1.0000
  C   C16       1.0  0.08049  0.55402  0.00046  1.0000
  C   C17       1.0  0.08217  0.65078  0.00008  1.0000
  C   C18       1.0  0.99057  0.69835  0.00008  1.0000
  C   C19       1.0  0.92249  0.69094  0.90480  1.0000
  C   C20       1.0  0.92135  0.59416  0.90473  1.0000
  C   C21       1.0  0.96265  0.55112  0.09445  1.0000
  C   C22       1.0  0.96638  0.64733  0.09571  1.0000
  C   C23       1.0  0.99225  0.79305  0.00007  1.0000
  C   C24       1.0  0.98592  0.43610  0.00008  1.0000
  C   C25       1.0  0.14217  0.10846  0.00009  1.0000
  C   C26       1.0  0.23512  0.11011  0.00009  1.0000
  C   C27       1.0  0.98294  0.26766  0.00008  1.0000
  C   C28       1.0  0.98457  0.36061  0.00009  1.0000
  N   N1        1.0  0.04315  0.06053  0.23751  1.0000
  N   N2        1.0  0.93503  0.16861  0.76266  1.0000
  C   C29       1.0  0.84219  0.26137  0.60514  1.0000
  C   C30       1.0  0.86613  0.23745  0.71017  1.0000
  C   C31       1.0  0.98001  0.12365  0.71014  1.0000
  C   C32       1.0  0.95608  0.14756  0.60511  1.0000
  C   C33       1.0  0.88717  0.21642  0.55262  1.0000
  C   C34       1.0  0.00105  0.10261  0.55259  1.0000
  C   C35       1.0  0.97712  0.12652  0.44757  1.0000
  C   C36       1.0  0.90822  0.19538  0.39508  1.0000
  C   C37       1.0  0.86323  0.24033  0.44761  1.0000
  C   C38       1.0  0.06997  0.03376  0.60508  1.0000
  C   C39       1.0  0.11495  0.98881  0.55256  1.0000
  C   C40       1.0  0.09101  0.01272  0.44754  1.0000
  C   C41       1.0  0.02210  0.08157  0.39504  1.0000
  C   C42       1.0  0.13599  0.96776  0.39501  1.0000
  C   C43       1.0  0.11206  0.99167  0.29000  1.0000
  C   C44       1.0  0.99817  0.10548  0.29003  1.0000
  H   H1        1.0  0.38018  0.24880  0.90041  1.0000
  H   H2        1.0  0.44988  0.96932  0.06878  1.0000
  H   H3        1.0  0.41779  0.00050  0.93251  1.0000
  Cl  Cl1       1.0  0.81718  0.74139  0.89932  1.0000
  Cl  Cl2       1.0  0.80958  0.29397  0.77619  1.0000
  Cl  Cl3       1.0  0.87813  0.22544  0.26306  1.0000
  Cl  Cl4       1.0  0.94594  0.57778  0.79478  1.0000
  H   H4        1.0  0.42465  0.20667  0.09510  1.0000
  H   H5        1.0  0.52232  0.16766  0.83390  1.0000
  Cl  Cl5       1.0  0.85741  0.52930  0.09544  1.0000
  H   H6        1.0  0.80711  0.29640  0.40487  1.0000
  H   H7        1.0  0.94205  0.16155  0.24729  1.0000
  H   H8        1.0  0.78607  0.31743  0.56241  1.0000
  Cl  Cl6       1.0  0.81478  0.57322  0.89804  1.0000
  H   H9        1.0  0.56174  0.00304  0.93166  1.0000
  Cl  Cl7       1.0  0.61736  0.94440  0.10551  1.0000
  Cl  Cl8       1.0  0.06665  0.03709  0.77613  1.0000
  Cl  Cl9       1.0  0.10006  0.00371  0.73710  1.0000
  Cl  Cl10      1.0  0.57923  0.24152  0.10459  1.0000
  H   H10       1.0  0.13181  0.51047  0.06878  1.0000
  H   H11       1.0  0.13405  0.65426  0.06837  1.0000
  H   H12       1.0  0.10059  0.54047  0.93253  1.0000
  H   H13       1.0  0.17106  0.93275  0.59531  1.0000
  Cl  Cl11      1.0  0.16860  0.93517  0.22397  1.0000
  H   H14       1.0  0.19210  0.91171  0.43776  1.0000
  H   H15       1.0  0.59688  0.09000  0.16619  1.0000
  Cl  Cl12      1.0  0.53064  0.28944  0.89931  1.0000
  Cl  Cl13      1.0  0.36013  0.15479  0.79478  1.0000
  H   H16       1.0  0.45219  0.09295  0.16667  1.0000
  H   H17       1.0  0.10314  0.68476  0.93167  1.0000
  H   H18       1.0  0.00832  0.50660  0.16667  1.0000
  Cl  Cl14      1.0  0.94731  0.74681  0.79534  1.0000
  H   H19       1.0  0.90083  0.67899  0.10146  1.0000
  Cl  Cl15      1.0  0.04330  0.65123  0.20453  1.0000
