data_image0
_chemical_formula_structural       Zn8O26C14N4C2N4C80H6Br2H4Br4H2Br2H4Br2H2Br2H6Br4H2Br2H2Br2
_chemical_formula_sum              "Zn8 O26 C96 N8 H28 Br20"
_cell_length_a       15.2989
_cell_length_b       21.2954
_cell_length_c       15.2967
_cell_angle_alpha    99.6577
_cell_angle_beta     88.4043
_cell_angle_gamma    99.6509

_space_group_name_H-M_alt    "P 1"
_space_group_IT_number       1

loop_
  _space_group_symop_operation_xyz
  'x, y, z'

loop_
  _atom_site_type_symbol
  _atom_site_label
  _atom_site_symmetry_multiplicity
  _atom_site_fract_x
  _atom_site_fract_y
  _atom_site_fract_z
  _atom_site_occupancy
  Zn  Zn1       1.0  0.56598  0.03775  0.43505  1.0000
  Zn  Zn2       1.0  0.06598  0.53775  0.93505  1.0000
  Zn  Zn3       1.0  0.44486  0.00242  0.26326  1.0000
  Zn  Zn4       1.0  0.94486  0.50242  0.76326  1.0000
  Zn  Zn5       1.0  0.59126  0.12837  0.28858  1.0000
  Zn  Zn6       1.0  0.09126  0.62837  0.78858  1.0000
  Zn  Zn7       1.0  0.41953  0.12227  0.40968  1.0000
  Zn  Zn8       1.0  0.91953  0.62227  0.90968  1.0000
  O   O1        1.0  0.50541  0.07270  0.34914  1.0000
  O   O2        1.0  0.00541  0.57271  0.84914  1.0000
  O   O3        1.0  0.54994  0.94498  0.41228  1.0000
  O   O4        1.0  0.04994  0.44498  0.91228  1.0000
  O   O5        1.0  0.48545  0.00690  0.14404  1.0000
  O   O6        1.0  0.98545  0.50690  0.64404  1.0000
  O   O7        1.0  0.71047  0.13369  0.32923  1.0000
  O   O8        1.0  0.21047  0.63369  0.82923  1.0000
  O   O9        1.0  0.46095  0.91903  0.28607  1.0000
  O   O10       1.0  0.96095  0.41903  0.78607  1.0000
  O   O11       1.0  0.69190  0.06711  0.43684  1.0000
  O   O12       1.0  0.19190  0.56711  0.93684  1.0000
  O   O13       1.0  0.59301  0.09943  0.16265  1.0000
  O   O14       1.0  0.09301  0.59944  0.66265  1.0000
  O   O15       1.0  0.56845  0.21565  0.30463  1.0000
  O   O16       1.0  0.06845  0.71565  0.80463  1.0000
  O   O17       1.0  0.41778  0.12329  0.53562  1.0000
  O   O18       1.0  0.91778  0.62329  0.03562  1.0000
  O   O19       1.0  0.44229  0.21117  0.39360  1.0000
  O   O20       1.0  0.94229  0.71117  0.89360  1.0000
  O   O21       1.0  0.52538  0.06119  0.55426  1.0000
  O   O22       1.0  0.02538  0.56119  0.05426  1.0000
  O   O23       1.0  0.31894  0.00099  0.26147  1.0000
  O   O24       1.0  0.81894  0.50099  0.76147  1.0000
  O   O25       1.0  0.30033  0.08904  0.36904  1.0000
  O   O26       1.0  0.80033  0.58904  0.86904  1.0000
  C   C1        1.0  0.50536  0.23625  0.34911  1.0000
  C   C2        1.0  0.00536  0.73625  0.84911  1.0000
  C   C3        1.0  0.50532  0.30621  0.34911  1.0000
  C   C4        1.0  0.00532  0.80621  0.84911  1.0000
  C   C5        1.0  0.55155  0.35256  0.41490  1.0000
  C   C6        1.0  0.05155  0.85256  0.91490  1.0000
  C   C7        1.0  0.55157  0.41831  0.41490  1.0000
  C   C8        1.0  0.05157  0.91831  0.91490  1.0000
  C   C9        1.0  0.50534  0.43770  0.34913  1.0000
  C   C10       1.0  0.00534  0.93770  0.84913  1.0000
  C   C11       1.0  0.45911  0.39134  0.28332  1.0000
  C   C12       1.0  0.95911  0.89134  0.78333  1.0000
  C   C13       1.0  0.45910  0.32559  0.28332  1.0000
  C   C14       1.0  0.95910  0.82559  0.78332  1.0000
  N   N1        1.0  0.42989  0.52942  0.32904  1.0000
  N   N2        1.0  0.92989  0.02942  0.82904  1.0000
  N   N3        1.0  0.42990  0.59187  0.32905  1.0000
  N   N4        1.0  0.92990  0.09187  0.82905  1.0000
  C   C15       1.0  0.50538  0.63578  0.34915  1.0000
  C   C16       1.0  0.00538  0.13578  0.84915  1.0000
  N   N5        1.0  0.58084  0.61488  0.36925  1.0000
  N   N6        1.0  0.08084  0.11488  0.86925  1.0000
  N   N7        1.0  0.58082  0.55241  0.36924  1.0000
  N   N8        1.0  0.08082  0.05242  0.86924  1.0000
  C   C17       1.0  0.50535  0.50898  0.34913  1.0000
  C   C18       1.0  0.00535  0.00898  0.84913  1.0000
  C   C19       1.0  0.55163  0.75342  0.41495  1.0000
  C   C20       1.0  0.05163  0.25342  0.91495  1.0000
  C   C21       1.0  0.55166  0.81917  0.41495  1.0000
  C   C22       1.0  0.05165  0.31917  0.91495  1.0000
  C   C23       1.0  0.45919  0.79219  0.28337  1.0000
  C   C24       1.0  0.95919  0.29219  0.78337  1.0000
  C   C25       1.0  0.45917  0.72645  0.28337  1.0000
  C   C26       1.0  0.95917  0.22645  0.78337  1.0000
  C   C27       1.0  0.50539  0.70707  0.34916  1.0000
  C   C28       1.0  0.00539  0.20707  0.84916  1.0000
  C   C29       1.0  0.27785  0.04050  0.30977  1.0000
  C   C30       1.0  0.77785  0.54050  0.80977  1.0000
  C   C31       1.0  0.18049  0.02667  0.29296  1.0000
  C   C32       1.0  0.68049  0.52667  0.79296  1.0000
  C   C33       1.0  0.86722  0.17115  0.46940  1.0000
  C   C34       1.0  0.36722  0.67115  0.96940  1.0000
  C   C35       1.0  0.95869  0.18415  0.48520  1.0000
  C   C36       1.0  0.45869  0.68415  0.98520  1.0000
  C   C37       1.0  0.01414  0.14478  0.43714  1.0000
  C   C38       1.0  0.51415  0.64478  0.93714  1.0000
  C   C39       1.0  0.97812  0.09242  0.37328  1.0000
  C   C40       1.0  0.47812  0.59242  0.87328  1.0000
  C   C41       1.0  0.88664  0.07942  0.35748  1.0000
  C   C42       1.0  0.38664  0.57942  0.85748  1.0000
  C   C43       1.0  0.03357  0.05304  0.32522  1.0000
  C   C44       1.0  0.53357  0.55304  0.82522  1.0000
  C   C45       1.0  0.99755  0.00068  0.26135  1.0000
  C   C46       1.0  0.49755  0.50068  0.76135  1.0000
  C   C47       1.0  0.90608  0.98768  0.24556  1.0000
  C   C48       1.0  0.40608  0.48768  0.74556  1.0000
  C   C49       1.0  0.85062  0.02705  0.29362  1.0000
  C   C50       1.0  0.35062  0.52705  0.79362  1.0000
  C   C51       1.0  0.12505  0.06604  0.34102  1.0000
  C   C52       1.0  0.62505  0.56604  0.84102  1.0000
  C   C53       1.0  0.14447  0.97431  0.22910  1.0000
  C   C54       1.0  0.64447  0.47431  0.72910  1.0000
  C   C55       1.0  0.05300  0.96131  0.21330  1.0000
  C   C56       1.0  0.55300  0.46131  0.71330  1.0000
  C   C57       1.0  0.73385  0.10502  0.38869  1.0000
  C   C58       1.0  0.23385  0.60502  0.88869  1.0000
  C   C59       1.0  0.83120  0.11879  0.40554  1.0000
  C   C60       1.0  0.33120  0.61879  0.90554  1.0000
  C   C61       1.0  0.46593  0.09550  0.57761  1.0000
  C   C62       1.0  0.96593  0.59550  0.07761  1.0000
  C   C63       1.0  0.44911  0.10522  0.67497  1.0000
  C   C64       1.0  0.94911  0.60522  0.17497  1.0000
  C   C65       1.0  0.50544  0.90852  0.34917  1.0000
  C   C66       1.0  0.00544  0.40852  0.84917  1.0000
  C   C67       1.0  0.50543  0.83855  0.34917  1.0000
  C   C68       1.0  0.00543  0.33855  0.84917  1.0000
  C   C69       1.0  0.54479  0.04997  0.12158  1.0000
  C   C70       1.0  0.04479  0.54997  0.62158  1.0000
  C   C71       1.0  0.56186  0.04017  0.02426  1.0000
  C   C72       1.0  0.06186  0.54017  0.52426  1.0000
  C   C73       1.0  0.62578  0.00327  0.98823  1.0000
  C   C74       1.0  0.12578  0.50327  0.48823  1.0000
  C   C75       1.0  0.64158  0.99414  0.89675  1.0000
  C   C76       1.0  0.14158  0.49414  0.39675  1.0000
  C   C77       1.0  0.59347  0.02191  0.84130  1.0000
  C   C78       1.0  0.09347  0.52191  0.34130  1.0000
  C   C79       1.0  0.52955  0.05881  0.87734  1.0000
  C   C80       1.0  0.02955  0.55881  0.37734  1.0000
  C   C81       1.0  0.51374  0.06794  0.96882  1.0000
  C   C82       1.0  0.01374  0.56794  0.46882  1.0000
  C   C83       1.0  0.48142  0.08658  0.82189  1.0000
  C   C84       1.0  0.98142  0.58658  0.32189  1.0000
  C   C85       1.0  0.41750  0.12348  0.85793  1.0000
  C   C86       1.0  0.91750  0.62348  0.35793  1.0000
  C   C87       1.0  0.40170  0.13261  0.94940  1.0000
  C   C88       1.0  0.90170  0.63261  0.44940  1.0000
  C   C89       1.0  0.44981  0.10484  0.00485  1.0000
  C   C90       1.0  0.94981  0.60484  0.50485  1.0000
  C   C91       1.0  0.49723  0.07745  0.73041  1.0000
  C   C92       1.0  0.99723  0.57745  0.23041  1.0000
  C   C93       1.0  0.38519  0.14212  0.71100  1.0000
  C   C94       1.0  0.88519  0.64212  0.21100  1.0000
  C   C95       1.0  0.36939  0.15125  0.80248  1.0000
  C   C96       1.0  0.86939  0.65125  0.30248  1.0000
  H   H1        1.0  0.42155  0.80798  0.22982  1.0000
  H   H2        1.0  0.92155  0.30798  0.72982  1.0000
  H   H3        1.0  0.58922  0.45606  0.46848  1.0000
  H   H4        1.0  0.08922  0.95606  0.96848  1.0000
  H   H5        1.0  0.58927  0.73764  0.46852  1.0000
  H   H6        1.0  0.08927  0.23764  0.96852  1.0000
  Br  Br1       1.0  0.39644  0.66354  0.19407  1.0000
  Br  Br2       1.0  0.89644  0.16354  0.69407  1.0000
  H   H7        1.0  0.43695  0.11227  0.07934  1.0000
  H   H8        1.0  0.93695  0.61227  0.57934  1.0000
  H   H9        1.0  0.60634  0.01447  0.76682  1.0000
  H   H10       1.0  0.10634  0.51447  0.26682  1.0000
  Br  Br3       1.0  0.72647  0.00940  0.27221  1.0000
  Br  Br4       1.0  0.22647  0.50940  0.77221  1.0000
  Br  Br5       1.0  0.00411  0.89024  0.12662  1.0000
  Br  Br6       1.0  0.50411  0.39025  0.62662  1.0000
  H   H11       1.0  0.82206  0.20320  0.50853  1.0000
  H   H12       1.0  0.32206  0.70320  0.00852  1.0000
  Br  Br7       1.0  0.17392  0.13711  0.42769  1.0000
  Br  Br8       1.0  0.67392  0.63711  0.92769  1.0000
  H   H13       1.0  0.58931  0.85691  0.46852  1.0000
  H   H14       1.0  0.08931  0.35691  0.96852  1.0000
  H   H15       1.0  0.08862  0.15536  0.45001  1.0000
  H   H16       1.0  0.58862  0.65536  0.95001  1.0000
  Br  Br9       1.0  0.85719  0.91661  0.15890  1.0000
  Br  Br10      1.0  0.35719  0.41661  0.65890  1.0000
  H   H17       1.0  0.42147  0.40712  0.22977  1.0000
  H   H18       1.0  0.92147  0.90712  0.72977  1.0000
  Br  Br11      1.0  0.00757  0.25521  0.57188  1.0000
  Br  Br12      1.0  0.50757  0.75521  0.07188  1.0000
  H   H19       1.0  0.18962  0.94225  0.18997  1.0000
  H   H20       1.0  0.68962  0.44225  0.68997  1.0000
  H   H21       1.0  0.34964  0.16265  0.97873  1.0000
  H   H22       1.0  0.84964  0.66265  0.47873  1.0000
  H   H23       1.0  0.54928  0.04740  0.70108  1.0000
  H   H24       1.0  0.04928  0.54740  0.20108  1.0000
  Br  Br13      1.0  0.72833  0.94406  0.84786  1.0000
  Br  Br14      1.0  0.22833  0.44406  0.34786  1.0000
  Br  Br15      1.0  0.39636  0.26268  0.19402  1.0000
  Br  Br16      1.0  0.89636  0.76268  0.69402  1.0000
  H   H25       1.0  0.66494  0.98066  0.03338  1.0000
  H   H26       1.0  0.16494  0.48066  0.53338  1.0000
  Br  Br17      1.0  0.28264  0.20133  0.85139  1.0000
  Br  Br18      1.0  0.78264  0.70133  0.35139  1.0000
  H   H27       1.0  0.58919  0.33679  0.46847  1.0000
  H   H28       1.0  0.08919  0.83679  0.96847  1.0000
  Br  Br19      1.0  0.31988  0.17980  0.63575  1.0000
  Br  Br20      1.0  0.81988  0.67980  0.13575  1.0000
