data_image0
_chemical_formula_structural       O7Cu2OC18N2HNH3NH7NH2NH2NH2O7Cu2OC18N2HNH3NH7NH2NH2NH2
_chemical_formula_sum              "O16 Cu4 C36 N14 H34"
_cell_length_a       9.06522
_cell_length_b       15.9954
_cell_length_c       15.0807
_cell_angle_alpha    89.9986
_cell_angle_beta     89.997
_cell_angle_gamma    84.2541

_space_group_name_H-M_alt    "P 1"
_space_group_IT_number       1

loop_
  _space_group_symop_operation_xyz
  'x, y, z'

loop_
  _atom_site_type_symbol
  _atom_site_label
  _atom_site_symmetry_multiplicity
  _atom_site_fract_x
  _atom_site_fract_y
  _atom_site_fract_z
  _atom_site_occupancy
  O   O1        1.0  0.95751  0.12277  0.42626  1.0000
  O   O2        1.0  0.52799  0.13284  0.42626  1.0000
  O   O3        1.0  0.75449  0.00601  0.42626  1.0000
  O   O4        1.0  0.73101  0.24960  0.42626  1.0000
  O   O5        1.0  0.75447  0.00600  0.07374  1.0000
  O   O6        1.0  0.52797  0.13284  0.07374  1.0000
  O   O7        1.0  0.95749  0.12277  0.07374  1.0000
  Cu  Cu1       1.0  0.74273  0.12780  0.08721  1.0000
  Cu  Cu2       1.0  0.74275  0.12781  0.41279  1.0000
  O   O8        1.0  0.73099  0.24960  0.07374  1.0000
  C   C1        1.0  0.47301  0.13187  0.00000  1.0000
  C   C2        1.0  0.30924  0.12898  0.00000  1.0000
  C   C3        1.0  0.75351  0.97480  0.00000  1.0000
  C   C4        1.0  0.75060  0.88183  0.50000  1.0000
  C   C5        1.0  0.74015  0.54401  0.50000  1.0000
  C   C6        1.0  0.57884  0.59021  0.49967  1.0000
  C   C7        1.0  0.58175  0.68693  0.00000  1.0000
  C   C8        1.0  0.74533  0.71160  0.50000  1.0000
  C   C9        1.0  0.82489  0.67113  0.08422  1.0000
  C   C10       1.0  0.82084  0.57446  0.08429  1.0000
  C   C11       1.0  0.82418  0.57413  0.41657  1.0000
  C   C12       1.0  0.82415  0.67108  0.41546  1.0000
  C   C13       1.0  0.74827  0.80632  0.50000  1.0000
  C   C14       1.0  0.73721  0.44928  0.00000  1.0000
  C   C15       1.0  0.01247  0.12374  0.00000  1.0000
  C   C16       1.0  0.17624  0.12663  0.50000  1.0000
  C   C17       1.0  0.73197  0.28081  0.00000  1.0000
  C   C18       1.0  0.73488  0.37378  0.00000  1.0000
  N   N1        1.0  0.74273  0.12780  0.20988  1.0000
  N   N2        1.0  0.74276  0.12780  0.29012  1.0000
  H   H1        1.0  0.51921  0.71488  0.43963  1.0000
  N   N3        1.0  0.49342  0.56502  0.41968  1.0000
  H   H2        1.0  0.46186  0.61641  0.38278  1.0000
  H   H3        1.0  0.55853  0.52339  0.38294  1.0000
  H   H4        1.0  0.76962  0.69909  0.14689  1.0000
  N   N4        1.0  0.49379  0.56362  0.07922  1.0000
  H   H5        1.0  0.55930  0.52177  0.11547  1.0000
  H   H6        1.0  0.46162  0.61449  0.11676  1.0000
  H   H7        1.0  0.94507  0.68617  0.08735  1.0000
  H   H8        1.0  0.93927  0.54311  0.08811  1.0000
  H   H9        1.0  0.77145  0.55319  0.35274  1.0000
  H   H10       1.0  0.51878  0.71431  0.06047  1.0000
  H   H11       1.0  0.76281  0.55572  0.14724  1.0000
  N   N5        1.0  0.98173  0.53327  0.41581  1.0000
  H   H12       1.0  0.98121  0.47019  0.41351  1.0000
  H   H13       1.0  0.03507  0.55293  0.36207  1.0000
  N   N6        1.0  0.74720  0.70664  0.33292  1.0000
  H   H14       1.0  0.66165  0.74883  0.35021  1.0000
  H   H15       1.0  0.81984  0.73519  0.29555  1.0000
  N   N7        1.0  0.98217  0.69262  0.40871  1.0000
  H   H16       1.0  0.00501  0.72911  0.46060  1.0000
  H   H17       1.0  0.05175  0.63921  0.40943  1.0000
  O   O9        1.0  0.95751  0.12277  0.92626  1.0000
  O   O10       1.0  0.52799  0.13284  0.92626  1.0000
  O   O11       1.0  0.75449  0.00601  0.92626  1.0000
  O   O12       1.0  0.73101  0.24960  0.92626  1.0000
  O   O13       1.0  0.75447  0.00600  0.57374  1.0000
  O   O14       1.0  0.52797  0.13284  0.57374  1.0000
  O   O15       1.0  0.95749  0.12277  0.57374  1.0000
  Cu  Cu3       1.0  0.74273  0.12780  0.58721  1.0000
  Cu  Cu4       1.0  0.74275  0.12781  0.91279  1.0000
  O   O16       1.0  0.73099  0.24960  0.57374  1.0000
  C   C19       1.0  0.47301  0.13187  0.50000  1.0000
  C   C20       1.0  0.30924  0.12898  0.50000  1.0000
  C   C21       1.0  0.75351  0.97480  0.50000  1.0000
  C   C22       1.0  0.75060  0.88183  1.00000  1.0000
  C   C23       1.0  0.74015  0.54401  1.00000  1.0000
  C   C24       1.0  0.57884  0.59022  0.99967  1.0000
  C   C25       1.0  0.58175  0.68693  0.50000  1.0000
  C   C26       1.0  0.74533  0.71160  1.00000  1.0000
  C   C27       1.0  0.82489  0.67113  0.58422  1.0000
  C   C28       1.0  0.82084  0.57446  0.58429  1.0000
  C   C29       1.0  0.82418  0.57413  0.91657  1.0000
  C   C30       1.0  0.82415  0.67108  0.91546  1.0000
  C   C31       1.0  0.74827  0.80632  1.00000  1.0000
  C   C32       1.0  0.73721  0.44928  0.50000  1.0000
  C   C33       1.0  0.01247  0.12374  0.50000  1.0000
  C   C34       1.0  0.17624  0.12663  1.00000  1.0000
  C   C35       1.0  0.73197  0.28081  0.50000  1.0000
  C   C36       1.0  0.73488  0.37378  0.50000  1.0000
  N   N8        1.0  0.74273  0.12780  0.70988  1.0000
  N   N9        1.0  0.74276  0.12780  0.79012  1.0000
  H   H18       1.0  0.51921  0.71488  0.93963  1.0000
  N   N10       1.0  0.49342  0.56502  0.91968  1.0000
  H   H19       1.0  0.46186  0.61641  0.88278  1.0000
  H   H20       1.0  0.55853  0.52339  0.88294  1.0000
  H   H21       1.0  0.76962  0.69909  0.64689  1.0000
  N   N11       1.0  0.49379  0.56362  0.57922  1.0000
  H   H22       1.0  0.55930  0.52177  0.61547  1.0000
  H   H23       1.0  0.46162  0.61449  0.61676  1.0000
  H   H24       1.0  0.94507  0.68617  0.58735  1.0000
  H   H25       1.0  0.93927  0.54311  0.58810  1.0000
  H   H26       1.0  0.77145  0.55319  0.85274  1.0000
  H   H27       1.0  0.51878  0.71431  0.56047  1.0000
  H   H28       1.0  0.76281  0.55572  0.64724  1.0000
  N   N12       1.0  0.98173  0.53327  0.91581  1.0000
  H   H29       1.0  0.98121  0.47019  0.91351  1.0000
  H   H30       1.0  0.03507  0.55293  0.86207  1.0000
  N   N13       1.0  0.74720  0.70664  0.83292  1.0000
  H   H31       1.0  0.66165  0.74883  0.85021  1.0000
  H   H32       1.0  0.81984  0.73519  0.79555  1.0000
  N   N14       1.0  0.98217  0.69262  0.90871  1.0000
  H   H33       1.0  0.00501  0.72911  0.96059  1.0000
  H   H34       1.0  0.05175  0.63921  0.90943  1.0000
