data_image0
_chemical_formula_structural       Zn12O39C84N6C42N6H3Cl3H6Cl30H6Cl3H3Cl9H3Cl3H3Cl12
_chemical_formula_sum              "Zn12 O39 C126 N12 H24 Cl60"
_cell_length_a       18.1014
_cell_length_b       19.0771
_cell_length_c       19.0769
_cell_angle_alpha    90.0744
_cell_angle_beta     87.7277
_cell_angle_gamma    92.2733

_space_group_name_H-M_alt    "P 1"
_space_group_IT_number       1

loop_
  _space_group_symop_operation_xyz
  'x, y, z'

loop_
  _atom_site_type_symbol
  _atom_site_label
  _atom_site_symmetry_multiplicity
  _atom_site_fract_x
  _atom_site_fract_y
  _atom_site_fract_z
  _atom_site_occupancy
  Zn  Zn1       1.0  0.64171  0.94177  0.44046  1.0000
  Zn  Zn2       1.0  0.97504  0.27510  0.77379  1.0000
  Zn  Zn3       1.0  0.30838  0.60844  0.10712  1.0000
  Zn  Zn4       1.0  0.52264  0.93714  0.32295  1.0000
  Zn  Zn5       1.0  0.85597  0.27048  0.65628  1.0000
  Zn  Zn6       1.0  0.18930  0.60381  0.98962  1.0000
  Zn  Zn7       1.0  0.65163  0.05455  0.31825  1.0000
  Zn  Zn8       1.0  0.98497  0.38788  0.65158  1.0000
  Zn  Zn9       1.0  0.31830  0.72122  0.98491  1.0000
  Zn  Zn10      1.0  0.52309  0.05932  0.43570  1.0000
  Zn  Zn11      1.0  0.85642  0.39265  0.76903  1.0000
  Zn  Zn12      1.0  0.18975  0.72599  0.10237  1.0000
  O   O1        1.0  0.58477  0.99820  0.37934  1.0000
  O   O2        1.0  0.91810  0.33153  0.71267  1.0000
  O   O3        1.0  0.25143  0.66486  0.04601  1.0000
  O   O4        1.0  0.62157  0.84283  0.42883  1.0000
  O   O5        1.0  0.95491  0.17616  0.76216  1.0000
  O   O6        1.0  0.28824  0.50949  0.09550  1.0000
  O   O7        1.0  0.54371  0.94879  0.22399  1.0000
  O   O8        1.0  0.87705  0.28212  0.55733  1.0000
  O   O9        1.0  0.21038  0.61545  0.89066  1.0000
  O   O10       1.0  0.75395  0.03953  0.33448  1.0000
  O   O11       1.0  0.08728  0.37286  0.66781  1.0000
  O   O12       1.0  0.42061  0.70620  0.00115  1.0000
  O   O13       1.0  0.53409  0.83943  0.34250  1.0000
  O   O14       1.0  0.86743  0.17276  0.67583  1.0000
  O   O15       1.0  0.20076  0.50609  0.00916  1.0000
  O   O16       1.0  0.74666  0.95667  0.42427  1.0000
  O   O17       1.0  0.07999  0.29000  0.75760  1.0000
  O   O18       1.0  0.41332  0.62334  0.09093  1.0000
  O   O19       1.0  0.63849  0.03505  0.22054  1.0000
  O   O20       1.0  0.97182  0.36838  0.55387  1.0000
  O   O21       1.0  0.30515  0.70171  0.88721  1.0000
  O   O22       1.0  0.63892  0.15352  0.32987  1.0000
  O   O23       1.0  0.97225  0.48685  0.66320  1.0000
  O   O24       1.0  0.30559  0.82018  0.99653  1.0000
  O   O25       1.0  0.53486  0.04766  0.53466  1.0000
  O   O26       1.0  0.86819  0.38099  0.86799  1.0000
  O   O27       1.0  0.20152  0.71433  0.20133  1.0000
  O   O28       1.0  0.54448  0.15702  0.41616  1.0000
  O   O29       1.0  0.87781  0.49035  0.74949  1.0000
  O   O30       1.0  0.21115  0.82369  0.08282  1.0000
  O   O31       1.0  0.62201  0.96130  0.53816  1.0000
  O   O32       1.0  0.95534  0.29463  0.87149  1.0000
  O   O33       1.0  0.28868  0.62796  0.20482  1.0000
  O   O34       1.0  0.41907  0.95341  0.33788  1.0000
  O   O35       1.0  0.75240  0.28675  0.67122  1.0000
  O   O36       1.0  0.08573  0.62008  0.00455  1.0000
  O   O37       1.0  0.41940  0.04317  0.42072  1.0000
  O   O38       1.0  0.75273  0.37651  0.75405  1.0000
  O   O39       1.0  0.08607  0.70984  0.08739  1.0000
  C   C1        1.0  0.39236  0.99829  0.37931  1.0000
  C   C2        1.0  0.72569  0.33162  0.71265  1.0000
  C   C3        1.0  0.05903  0.66496  0.04598  1.0000
  C   C4        1.0  0.31005  0.99827  0.37933  1.0000
  C   C5        1.0  0.64338  0.33160  0.71266  1.0000
  C   C6        1.0  0.97671  0.66493  0.04600  1.0000
  C   C7        1.0  0.59282  0.18076  0.37199  1.0000
  C   C8        1.0  0.92616  0.51410  0.70532  1.0000
  C   C9        1.0  0.25949  0.84743  0.03865  1.0000
  C   C10       1.0  0.59625  0.25887  0.36886  1.0000
  C   C11       1.0  0.92959  0.59220  0.70219  1.0000
  C   C12       1.0  0.26292  0.92553  0.03552  1.0000
  C   C13       1.0  0.57738  0.00553  0.56262  1.0000
  C   C14       1.0  0.91071  0.33886  0.89595  1.0000
  C   C15       1.0  0.24404  0.67219  0.22928  1.0000
  C   C16       1.0  0.57423  0.00865  0.64072  1.0000
  C   C17       1.0  0.90756  0.34198  0.97405  1.0000
  C   C18       1.0  0.24089  0.67532  0.30739  1.0000
  C   C19       1.0  0.01095  0.99811  0.37937  1.0000
  C   C20       1.0  0.34428  0.33145  0.71271  1.0000
  C   C21       1.0  0.67761  0.66478  0.04604  1.0000
  C   C22       1.0  0.04244  0.05447  0.43163  1.0000
  C   C23       1.0  0.37577  0.38780  0.76496  1.0000
  C   C24       1.0  0.70910  0.72114  0.09830  1.0000
  C   C25       1.0  0.12807  0.05472  0.43145  1.0000
  C   C26       1.0  0.46141  0.38805  0.76478  1.0000
  C   C27       1.0  0.79474  0.72139  0.09812  1.0000
  C   C28       1.0  0.15933  0.99819  0.37935  1.0000
  C   C29       1.0  0.49267  0.33152  0.71269  1.0000
  C   C30       1.0  0.82600  0.66486  0.04602  1.0000
  C   C31       1.0  0.13207  0.01526  0.30449  1.0000
  C   C32       1.0  0.46541  0.34859  0.63782  1.0000
  C   C33       1.0  0.79874  0.68193  0.97116  1.0000
  C   C34       1.0  0.04643  0.01562  0.30480  1.0000
  C   C35       1.0  0.37976  0.34896  0.63814  1.0000
  C   C36       1.0  0.71310  0.68229  0.97147  1.0000
  C   C37       1.0  0.03856  0.92454  0.40133  1.0000
  C   C38       1.0  0.37189  0.25788  0.73466  1.0000
  C   C39       1.0  0.70522  0.59121  0.06800  1.0000
  C   C40       1.0  0.12416  0.92504  0.40294  1.0000
  C   C41       1.0  0.45750  0.25838  0.73627  1.0000
  C   C42       1.0  0.79083  0.59171  0.06960  1.0000
  C   C43       1.0  0.24320  0.99823  0.37933  1.0000
  C   C44       1.0  0.57653  0.33156  0.71267  1.0000
  C   C45       1.0  0.90986  0.66490  0.04600  1.0000
  C   C46       1.0  0.92708  0.99807  0.37938  1.0000
  C   C47       1.0  0.26042  0.33141  0.71272  1.0000
  C   C48       1.0  0.59375  0.66474  0.04605  1.0000
  C   C49       1.0  0.77792  0.99809  0.37938  1.0000
  C   C50       1.0  0.11126  0.33142  0.71271  1.0000
  C   C51       1.0  0.44459  0.66475  0.04604  1.0000
  C   C52       1.0  0.86023  0.99804  0.37940  1.0000
  C   C53       1.0  0.19357  0.33137  0.71273  1.0000
  C   C54       1.0  0.52690  0.66470  0.04606  1.0000
  C   C55       1.0  0.54862  0.29736  0.41224  1.0000
  C   C56       1.0  0.88196  0.63070  0.74558  1.0000
  C   C57       1.0  0.21529  0.96403  0.07891  1.0000
  C   C58       1.0  0.55186  0.37075  0.40931  1.0000
  C   C59       1.0  0.88519  0.70409  0.74264  1.0000
  C   C60       1.0  0.21852  0.03742  0.07598  1.0000
  C   C61       1.0  0.60271  0.40564  0.36298  1.0000
  C   C62       1.0  0.93605  0.73897  0.69632  1.0000
  C   C63       1.0  0.26938  0.07231  0.02965  1.0000
  C   C64       1.0  0.65035  0.36714  0.31959  1.0000
  C   C65       1.0  0.98368  0.70047  0.65293  1.0000
  C   C66       1.0  0.31701  0.03381  0.98626  1.0000
  C   C67       1.0  0.64712  0.29375  0.32253  1.0000
  C   C68       1.0  0.98045  0.62709  0.65587  1.0000
  C   C69       1.0  0.31379  0.96042  0.98920  1.0000
  C   C70       1.0  0.61765  0.62493  0.34938  1.0000
  C   C71       1.0  0.95099  0.95826  0.68271  1.0000
  C   C72       1.0  0.28432  0.29159  0.01605  1.0000
  C   C73       1.0  0.62088  0.69832  0.34644  1.0000
  C   C74       1.0  0.95421  0.03165  0.67978  1.0000
  C   C75       1.0  0.28754  0.36498  0.01311  1.0000
  C   C76       1.0  0.52238  0.70192  0.43616  1.0000
  C   C77       1.0  0.85572  0.03526  0.76950  1.0000
  C   C78       1.0  0.18905  0.36859  0.10283  1.0000
  C   C79       1.0  0.51916  0.62854  0.43909  1.0000
  C   C80       1.0  0.85249  0.96187  0.77243  1.0000
  C   C81       1.0  0.18582  0.29520  0.10576  1.0000
  C   C82       1.0  0.56679  0.59004  0.39571  1.0000
  C   C83       1.0  0.90013  0.92337  0.72904  1.0000
  C   C84       1.0  0.23346  0.25671  0.06237  1.0000
  N   N1        1.0  0.60602  0.48065  0.35998  1.0000
  N   N2        1.0  0.93935  0.81399  0.69331  1.0000
  N   N3        1.0  0.27268  0.14732  0.02664  1.0000
  N   N4        1.0  0.56349  0.51503  0.39872  1.0000
  N   N5        1.0  0.89683  0.84836  0.73205  1.0000
  N   N6        1.0  0.23016  0.18170  0.06538  1.0000
  C   C85       1.0  0.57668  0.81492  0.38671  1.0000
  C   C86       1.0  0.91001  0.14825  0.72004  1.0000
  C   C87       1.0  0.24335  0.48158  0.05338  1.0000
  C   C88       1.0  0.57325  0.73681  0.38983  1.0000
  C   C89       1.0  0.90658  0.07015  0.72316  1.0000
  C   C90       1.0  0.23991  0.40348  0.05650  1.0000
  C   C91       1.0  0.59218  0.99086  0.19677  1.0000
  C   C92       1.0  0.92551  0.32419  0.53011  1.0000
  C   C93       1.0  0.25885  0.65752  0.86344  1.0000
  C   C94       1.0  0.59553  0.98760  0.11868  1.0000
  C   C95       1.0  0.92887  0.32093  0.45201  1.0000
  C   C96       1.0  0.26220  0.65426  0.78534  1.0000
  C   C97       1.0  0.61812  0.96516  0.67923  1.0000
  C   C98       1.0  0.95145  0.29849  0.01257  1.0000
  C   C99       1.0  0.28479  0.63182  0.34590  1.0000
  C   C100      1.0  0.61517  0.96810  0.75262  1.0000
  C   C101      1.0  0.94850  0.30143  0.08595  1.0000
  C   C102      1.0  0.28183  0.63477  0.41929  1.0000
  C   C103      1.0  0.56831  0.01453  0.78749  1.0000
  C   C104      1.0  0.90165  0.34787  0.12082  1.0000
  C   C105      1.0  0.23498  0.68120  0.45416  1.0000
  C   C106      1.0  0.52442  0.05804  0.74897  1.0000
  C   C107      1.0  0.85775  0.39137  0.08231  1.0000
  C   C108      1.0  0.19108  0.72470  0.41564  1.0000
  C   C109      1.0  0.52738  0.05510  0.67559  1.0000
  C   C110      1.0  0.86071  0.38843  0.00892  1.0000
  C   C111      1.0  0.19404  0.72176  0.34225  1.0000
  C   C112      1.0  0.55460  0.02816  0.00677  1.0000
  C   C113      1.0  0.88793  0.36149  0.34011  1.0000
  C   C114      1.0  0.22126  0.69482  0.67344  1.0000
  C   C115      1.0  0.55164  0.03109  0.08016  1.0000
  C   C116      1.0  0.88497  0.36442  0.41349  1.0000
  C   C117      1.0  0.21830  0.69776  0.74683  1.0000
  C   C118      1.0  0.64239  0.94115  0.08380  1.0000
  C   C119      1.0  0.97572  0.27449  0.41714  1.0000
  C   C120      1.0  0.30906  0.60782  0.75047  1.0000
  C   C121      1.0  0.64534  0.93822  0.01042  1.0000
  C   C122      1.0  0.97868  0.27155  0.34375  1.0000
  C   C123      1.0  0.31201  0.60488  0.67708  1.0000
  C   C124      1.0  0.60145  0.98172  0.97191  1.0000
  C   C125      1.0  0.93478  0.31505  0.30524  1.0000
  C   C126      1.0  0.26812  0.64838  0.63857  1.0000
  N   N7        1.0  0.56529  0.01754  0.86250  1.0000
  N   N8        1.0  0.89862  0.35088  0.19584  1.0000
  N   N9        1.0  0.23195  0.68421  0.52917  1.0000
  N   N10       1.0  0.60448  0.97871  0.89689  1.0000
  N   N11       1.0  0.93781  0.31205  0.23023  1.0000
  N   N12       1.0  0.27115  0.64538  0.56356  1.0000
  H   H1        1.0  0.14635  0.04439  0.48687  1.0000
  H   H2        1.0  0.47969  0.37772  0.82020  1.0000
  H   H3        1.0  0.81302  0.71105  0.15353  1.0000
  Cl  Cl1       1.0  0.49942  0.08284  0.95837  1.0000
  Cl  Cl2       1.0  0.83275  0.41618  0.29170  1.0000
  Cl  Cl3       1.0  0.16608  0.74951  0.62503  1.0000
  H   H4        1.0  0.47774  0.60014  0.47682  1.0000
  H   H5        1.0  0.81108  0.93347  0.81015  1.0000
  H   H6        1.0  0.14441  0.26680  0.14348  1.0000
  H   H7        1.0  0.14165  0.91212  0.45804  1.0000
  H   H8        1.0  0.47498  0.24545  0.79138  1.0000
  H   H9        1.0  0.80831  0.57878  0.12471  1.0000
  Cl  Cl4       1.0  0.46250  0.75032  0.49070  1.0000
  Cl  Cl5       1.0  0.79583  0.08366  0.82403  1.0000
  Cl  Cl6       1.0  0.12917  0.41699  0.15737  1.0000
  Cl  Cl7       1.0  0.16977  0.09725  0.27590  1.0000
  Cl  Cl8       1.0  0.50310  0.43058  0.60923  1.0000
  Cl  Cl9       1.0  0.83643  0.76392  0.94257  1.0000
  Cl  Cl10      1.0  0.49274  0.08948  0.12400  1.0000
  Cl  Cl11      1.0  0.82607  0.42281  0.45733  1.0000
  Cl  Cl12      1.0  0.15940  0.75614  0.79066  1.0000
  Cl  Cl13      1.0  0.46552  0.11642  0.79281  1.0000
  Cl  Cl14      1.0  0.79885  0.44975  0.12614  1.0000
  Cl  Cl15      1.0  0.13218  0.78308  0.45948  1.0000
  Cl  Cl16      1.0  0.47219  0.10978  0.62717  1.0000
  Cl  Cl17      1.0  0.80553  0.44311  0.96050  1.0000
  Cl  Cl18      1.0  0.13886  0.77645  0.29384  1.0000
  Cl  Cl19      1.0  0.71429  0.41100  0.26136  1.0000
  Cl  Cl20      1.0  0.04762  0.74433  0.59469  1.0000
  Cl  Cl21      1.0  0.38095  0.07766  0.92802  1.0000
  Cl  Cl22      1.0  0.70700  0.24536  0.26799  1.0000
  Cl  Cl23      1.0  0.04033  0.57869  0.60132  1.0000
  Cl  Cl24      1.0  0.37367  0.91202  0.93465  1.0000
  Cl  Cl25      1.0  0.49198  0.41914  0.46386  1.0000
  Cl  Cl26      1.0  0.82531  0.75248  0.79719  1.0000
  Cl  Cl27      1.0  0.15864  0.08581  0.13052  1.0000
  Cl  Cl28      1.0  0.00702  0.85977  0.34263  1.0000
  Cl  Cl29      1.0  0.34035  0.19310  0.67597  1.0000
  Cl  Cl30      1.0  0.67369  0.52644  0.00930  1.0000
  Cl  Cl31      1.0  0.00641  0.03872  0.51746  1.0000
  Cl  Cl32      1.0  0.33975  0.37206  0.85079  1.0000
  Cl  Cl33      1.0  0.67308  0.70539  0.18412  1.0000
  H   H10       1.0  0.68349  0.90040  0.98203  1.0000
  H   H11       1.0  0.01683  0.23373  0.31536  1.0000
  H   H12       1.0  0.35016  0.56707  0.64870  1.0000
  H   H13       1.0  0.15143  0.10931  0.41667  1.0000
  H   H14       1.0  0.48477  0.44265  0.75001  1.0000
  H   H15       1.0  0.81810  0.77598  0.08334  1.0000
  Cl  Cl34      1.0  0.01360  0.13825  0.40909  1.0000
  Cl  Cl35      1.0  0.34693  0.47158  0.74243  1.0000
  Cl  Cl36      1.0  0.68026  0.80492  0.07576  1.0000
  H   H16       1.0  0.02575  0.97619  0.26438  1.0000
  H   H17       1.0  0.35909  0.30953  0.59771  1.0000
  H   H18       1.0  0.69242  0.64286  0.93105  1.0000
  Cl  Cl37      1.0  0.02019  0.09852  0.27662  1.0000
  Cl  Cl38      1.0  0.35352  0.43185  0.60996  1.0000
  Cl  Cl39      1.0  0.68685  0.76518  0.94329  1.0000
  Cl  Cl40      1.0  0.16353  0.95368  0.24253  1.0000
  Cl  Cl41      1.0  0.49687  0.28701  0.57587  1.0000
  Cl  Cl42      1.0  0.83020  0.62035  0.90920  1.0000
  Cl  Cl43      1.0  0.00072  0.89962  0.48442  1.0000
  Cl  Cl44      1.0  0.33405  0.23295  0.81775  1.0000
  Cl  Cl45      1.0  0.66739  0.56628  0.15108  1.0000
  H   H19       1.0  0.14519  0.88107  0.36789  1.0000
  H   H20       1.0  0.47853  0.21441  0.70122  1.0000
  H   H21       1.0  0.81186  0.54774  0.03455  1.0000
  Cl  Cl46      1.0  0.48468  0.25351  0.47049  1.0000
  Cl  Cl47      1.0  0.81802  0.58685  0.80382  1.0000
  Cl  Cl48      1.0  0.15135  0.92018  0.13715  1.0000
  H   H22       1.0  0.66230  0.72672  0.30872  1.0000
  H   H23       1.0  0.99563  0.06005  0.64206  1.0000
  H   H24       1.0  0.32897  0.39339  0.97539  1.0000
  Cl  Cl49      1.0  0.69757  0.88647  0.13222  1.0000
  Cl  Cl50      1.0  0.03090  0.21981  0.46556  1.0000
  Cl  Cl51      1.0  0.36423  0.55314  0.79889  1.0000
  Cl  Cl52      1.0  0.67754  0.57654  0.29484  1.0000
  Cl  Cl53      1.0  0.01087  0.90987  0.62817  1.0000
  Cl  Cl54      1.0  0.34421  0.24321  0.96151  1.0000
  Cl  Cl55      1.0  0.67702  0.90677  0.63540  1.0000
  Cl  Cl56      1.0  0.01036  0.24011  0.96874  1.0000
  Cl  Cl57      1.0  0.34369  0.57344  0.30207  1.0000
  Cl  Cl58      1.0  0.67032  0.91338  0.80104  1.0000
  Cl  Cl59      1.0  0.00365  0.24672  0.13437  1.0000
  Cl  Cl60      1.0  0.33698  0.58005  0.46770  1.0000
