data_image0
_chemical_formula_structural       O14Cu4O2C14N4C2N4C24N2C4N2C4H32
_chemical_formula_sum              "O16 Cu4 C48 N12 H32"
_cell_length_a       19.1889
_cell_length_b       11.0266
_cell_length_c       9.4829
_cell_angle_alpha    78.5998
_cell_angle_beta     80.7364
_cell_angle_gamma    84.1397

_space_group_name_H-M_alt    "P 1"
_space_group_IT_number       1

loop_
  _space_group_symop_operation_xyz
  'x, y, z'

loop_
  _atom_site_type_symbol
  _atom_site_label
  _atom_site_symmetry_multiplicity
  _atom_site_fract_x
  _atom_site_fract_y
  _atom_site_fract_z
  _atom_site_occupancy
  O   O1        1.0  0.95394  0.86783  0.87886  1.0000
  O   O2        1.0  0.45394  0.36783  0.37886  1.0000
  O   O3        1.0  0.75322  0.84741  0.87891  1.0000
  O   O4        1.0  0.25322  0.34741  0.37891  1.0000
  O   O5        1.0  0.83694  0.03418  0.87890  1.0000
  O   O6        1.0  0.33694  0.53418  0.37890  1.0000
  O   O7        1.0  0.87021  0.68106  0.87888  1.0000
  O   O8        1.0  0.37021  0.18106  0.37888  1.0000
  O   O9        1.0  0.81996  0.99609  0.12069  1.0000
  O   O10       1.0  0.31996  0.49609  0.62069  1.0000
  O   O11       1.0  0.73623  0.80932  0.12071  1.0000
  O   O12       1.0  0.23623  0.30932  0.62071  1.0000
  O   O13       1.0  0.93695  0.82974  0.12066  1.0000
  O   O14       1.0  0.43695  0.32974  0.62066  1.0000
  Cu  Cu1       1.0  0.83504  0.81606  0.14276  1.0000
  Cu  Cu2       1.0  0.33504  0.31605  0.64276  1.0000
  Cu  Cu3       1.0  0.85513  0.86110  0.85681  1.0000
  Cu  Cu4       1.0  0.35513  0.36110  0.35681  1.0000
  O   O15       1.0  0.85323  0.64297  0.12067  1.0000
  O   O16       1.0  0.35323  0.14297  0.62067  1.0000
  C   C1        1.0  0.71863  0.82902  0.99982  1.0000
  C   C2        1.0  0.21863  0.32902  0.49982  1.0000
  C   C3        1.0  0.64087  0.83099  0.99984  1.0000
  C   C4        1.0  0.14088  0.33099  0.49983  1.0000
  C   C5        1.0  0.61362  0.85270  0.86803  1.0000
  C   C6        1.0  0.11362  0.35270  0.36803  1.0000
  C   C7        1.0  0.54056  0.85456  0.86801  1.0000
  C   C8        1.0  0.04056  0.35456  0.36801  1.0000
  C   C9        1.0  0.49476  0.83474  0.99981  1.0000
  C   C10       1.0  0.99476  0.33475  0.49981  1.0000
  C   C11       1.0  0.52202  0.81303  0.13163  1.0000
  C   C12       1.0  0.02202  0.31303  0.63163  1.0000
  C   C13       1.0  0.59508  0.81115  0.13164  1.0000
  C   C14       1.0  0.09508  0.31115  0.63164  1.0000
  N   N1        1.0  0.36967  0.89125  0.09789  1.0000
  N   N2        1.0  0.86967  0.39125  0.59789  1.0000
  N   N3        1.0  0.30027  0.89304  0.09787  1.0000
  N   N4        1.0  0.80027  0.39304  0.59787  1.0000
  C   C15       1.0  0.27463  0.84040  0.99977  1.0000
  C   C16       1.0  0.77463  0.34040  0.49977  1.0000
  N   N5        1.0  0.32102  0.78592  0.90167  1.0000
  N   N6        1.0  0.82102  0.28592  0.40167  1.0000
  N   N7        1.0  0.39043  0.78414  0.90169  1.0000
  N   N8        1.0  0.89043  0.28414  0.40169  1.0000
  C   C17       1.0  0.41553  0.83678  0.99981  1.0000
  C   C18       1.0  0.91553  0.33678  0.49981  1.0000
  C   C19       1.0  0.16816  0.86413  0.86794  1.0000
  C   C20       1.0  0.66816  0.36413  0.36794  1.0000
  C   C21       1.0  0.09510  0.86599  0.86792  1.0000
  C   C22       1.0  0.59510  0.36599  0.36792  1.0000
  C   C23       1.0  0.07655  0.82446  0.13155  1.0000
  C   C24       1.0  0.57655  0.32446  0.63155  1.0000
  C   C25       1.0  0.14961  0.82259  0.13156  1.0000
  C   C26       1.0  0.64962  0.32259  0.63156  1.0000
  C   C27       1.0  0.19541  0.84244  0.99975  1.0000
  C   C28       1.0  0.69541  0.34243  0.49975  1.0000
  C   C29       1.0  0.82231  0.06032  0.99979  1.0000
  C   C30       1.0  0.32231  0.56032  0.49979  1.0000
  C   C31       1.0  0.80402  0.19493  0.99979  1.0000
  C   C32       1.0  0.30402  0.69493  0.49979  1.0000
  C   C33       1.0  0.97154  0.84813  0.99975  1.0000
  C   C34       1.0  0.47154  0.34813  0.49975  1.0000
  C   C35       1.0  0.04930  0.84617  0.99972  1.0000
  C   C36       1.0  0.54930  0.34617  0.49972  1.0000
  C   C37       1.0  0.86786  0.61684  0.99977  1.0000
  C   C38       1.0  0.36786  0.11684  0.49977  1.0000
  C   C39       1.0  0.88616  0.48223  0.99976  1.0000
  C   C40       1.0  0.38616  0.98223  0.49976  1.0000
  N   N9        1.0  0.82092  0.78437  0.34388  1.0000
  N   N10       1.0  0.32092  0.28437  0.84388  1.0000
  C   C41       1.0  0.85454  0.26901  0.99978  1.0000
  C   C42       1.0  0.35454  0.76901  0.49978  1.0000
  C   C43       1.0  0.83563  0.40814  0.99978  1.0000
  C   C44       1.0  0.33563  0.90815  0.49978  1.0000
  N   N11       1.0  0.86926  0.89279  0.65569  1.0000
  N   N12       1.0  0.36926  0.39279  0.15569  1.0000
  C   C45       1.0  0.85096  0.85176  0.41608  1.0000
  C   C46       1.0  0.35096  0.35176  0.91608  1.0000
  C   C47       1.0  0.83921  0.82539  0.58350  1.0000
  C   C48       1.0  0.33921  0.32539  0.08350  1.0000
  H   H1        1.0  0.61726  0.79347  0.23898  1.0000
  H   H2        1.0  0.11726  0.29347  0.73898  1.0000
  H   H3        1.0  0.88537  0.92898  0.35394  1.0000
  H   H4        1.0  0.38537  0.42898  0.85394  1.0000
  H   H5        1.0  0.91179  0.22944  0.99977  1.0000
  H   H6        1.0  0.41179  0.72944  0.49977  1.0000
  H   H7        1.0  0.20545  0.88027  0.76061  1.0000
  H   H8        1.0  0.70545  0.38027  0.26061  1.0000
  H   H9        1.0  0.51837  0.87224  0.76067  1.0000
  H   H10       1.0  0.01837  0.37224  0.26067  1.0000
  H   H11       1.0  0.65091  0.86885  0.76070  1.0000
  H   H12       1.0  0.15091  0.36885  0.26070  1.0000
  H   H13       1.0  0.80479  0.74818  0.64563  1.0000
  H   H14       1.0  0.30479  0.24818  0.14563  1.0000
  H   H15       1.0  0.77837  0.44772  0.99978  1.0000
  H   H16       1.0  0.27837  0.94772  0.49978  1.0000
  H   H17       1.0  0.78650  0.70716  0.40602  1.0000
  H   H18       1.0  0.28650  0.20716  0.90602  1.0000
  H   H19       1.0  0.94342  0.44268  0.99964  1.0000
  H   H20       1.0  0.44342  0.94268  0.49964  1.0000
  H   H21       1.0  0.90367  0.97001  0.59356  1.0000
  H   H22       1.0  0.40367  0.47002  0.09356  1.0000
  H   H23       1.0  0.07291  0.88366  0.76059  1.0000
  H   H24       1.0  0.57291  0.38366  0.26059  1.0000
  H   H25       1.0  0.48472  0.79689  0.23894  1.0000
  H   H26       1.0  0.98472  0.29689  0.73894  1.0000
  H   H27       1.0  0.74676  0.23451  0.99980  1.0000
  H   H28       1.0  0.24676  0.73451  0.49980  1.0000
  H   H29       1.0  0.17180  0.80492  0.23889  1.0000
  H   H30       1.0  0.67180  0.30493  0.73889  1.0000
  H   H31       1.0  0.03926  0.80832  0.23886  1.0000
  H   H32       1.0  0.53926  0.30832  0.73886  1.0000
