data_image0
_chemical_formula_structural       O21Cu6O3C48N6C12
_chemical_formula_sum              "O24 Cu6 C60 N6"
_cell_length_a       14.5197
_cell_length_b       14.5197
_cell_length_c       12.9965
_cell_angle_alpha    89.9929
_cell_angle_beta     89.9943
_cell_angle_gamma    83.6889

_space_group_name_H-M_alt    "P 1"
_space_group_IT_number       1

loop_
  _space_group_symop_operation_xyz
  'x, y, z'

loop_
  _atom_site_type_symbol
  _atom_site_label
  _atom_site_symmetry_multiplicity
  _atom_site_fract_x
  _atom_site_fract_y
  _atom_site_fract_z
  _atom_site_occupancy
  O   O1        1.0  0.22387  0.12099  0.91443  1.0000
  O   O2        1.0  0.55720  0.45432  0.24776  1.0000
  O   O3        1.0  0.89053  0.78765  0.58110  1.0000
  O   O4        1.0  0.95539  0.13520  0.91443  1.0000
  O   O5        1.0  0.28873  0.46853  0.24776  1.0000
  O   O6        1.0  0.62206  0.80187  0.58109  1.0000
  O   O7        1.0  0.09674  0.99386  0.91444  1.0000
  O   O8        1.0  0.43007  0.32719  0.24777  1.0000
  O   O9        1.0  0.76340  0.66052  0.58110  1.0000
  O   O10       1.0  0.08252  0.26233  0.91442  1.0000
  O   O11       1.0  0.41586  0.59566  0.24775  1.0000
  O   O12       1.0  0.74919  0.92900  0.58108  1.0000
  O   O13       1.0  0.09672  0.99385  0.08557  1.0000
  O   O14       1.0  0.43006  0.32718  0.41890  1.0000
  O   O15       1.0  0.76339  0.66051  0.75224  1.0000
  O   O16       1.0  0.95538  0.13519  0.08556  1.0000
  O   O17       1.0  0.28871  0.46853  0.41889  1.0000
  O   O18       1.0  0.62205  0.80186  0.75223  1.0000
  O   O19       1.0  0.22385  0.12098  0.08556  1.0000
  O   O20       1.0  0.55718  0.45431  0.41890  1.0000
  O   O21       1.0  0.89052  0.78764  0.75223  1.0000
  Cu  Cu1       1.0  0.08961  0.12809  0.10119  1.0000
  Cu  Cu2       1.0  0.42295  0.46142  0.43452  1.0000
  Cu  Cu3       1.0  0.75628  0.79475  0.76785  1.0000
  Cu  Cu4       1.0  0.08963  0.12809  0.89880  1.0000
  Cu  Cu5       1.0  0.42296  0.46143  0.23214  1.0000
  Cu  Cu6       1.0  0.75630  0.79476  0.56547  1.0000
  O   O22       1.0  0.08251  0.26232  0.08555  1.0000
  O   O23       1.0  0.41584  0.59566  0.41889  1.0000
  O   O24       1.0  0.74917  0.92899  0.75222  1.0000
  C   C1        1.0  0.92103  0.13453  0.99999  1.0000
  C   C2        1.0  0.25436  0.46786  0.33333  1.0000
  C   C3        1.0  0.58769  0.80120  0.66666  1.0000
  C   C4        1.0  0.81865  0.13253  0.99999  1.0000
  C   C5        1.0  0.15198  0.46587  0.33333  1.0000
  C   C6        1.0  0.48531  0.79920  0.66666  1.0000
  C   C7        1.0  0.73550  0.13091  0.99999  1.0000
  C   C8        1.0  0.06884  0.46425  0.33332  1.0000
  C   C9        1.0  0.40217  0.79758  0.66666  1.0000
  C   C10       1.0  0.63119  0.12889  0.99999  1.0000
  C   C11       1.0  0.96453  0.46222  0.33332  1.0000
  C   C12       1.0  0.29786  0.79555  0.66665  1.0000
  C   C13       1.0  0.54805  0.12728  0.99999  1.0000
  C   C14       1.0  0.88139  0.46061  0.33332  1.0000
  C   C15       1.0  0.21472  0.79395  0.66666  1.0000
  C   C16       1.0  0.44374  0.12525  0.99999  1.0000
  C   C17       1.0  0.77707  0.45859  0.33332  1.0000
  C   C18       1.0  0.11040  0.79192  0.66665  1.0000
  C   C19       1.0  0.09606  0.95949  0.00000  1.0000
  C   C20       1.0  0.42940  0.29283  0.33334  1.0000
  C   C21       1.0  0.76273  0.62616  0.66667  1.0000
  C   C22       1.0  0.09407  0.85711  0.00001  1.0000
  C   C23       1.0  0.42740  0.19045  0.33334  1.0000
  C   C24       1.0  0.76073  0.52378  0.66667  1.0000
  C   C25       1.0  0.09245  0.77397  0.00000  1.0000
  C   C26       1.0  0.42578  0.10730  0.33334  1.0000
  C   C27       1.0  0.75911  0.44063  0.66667  1.0000
  C   C28       1.0  0.09042  0.66966  1.00000  1.0000
  C   C29       1.0  0.42375  0.00299  0.33333  1.0000
  C   C30       1.0  0.75709  0.33633  0.66666  1.0000
  C   C31       1.0  0.08881  0.58652  0.99999  1.0000
  C   C32       1.0  0.42214  0.91985  0.33332  1.0000
  C   C33       1.0  0.75548  0.25319  0.66665  1.0000
  C   C34       1.0  0.08678  0.48220  0.99998  1.0000
  C   C35       1.0  0.42012  0.81554  0.33331  1.0000
  C   C36       1.0  0.75345  0.14887  0.66665  1.0000
  C   C37       1.0  0.25822  0.12165  0.99999  1.0000
  C   C38       1.0  0.59155  0.45498  0.33333  1.0000
  C   C39       1.0  0.92489  0.78831  0.66666  1.0000
  C   C40       1.0  0.36060  0.12364  0.99999  1.0000
  C   C41       1.0  0.69393  0.45698  0.33332  1.0000
  C   C42       1.0  0.02727  0.79031  0.66665  1.0000
  C   C43       1.0  0.08318  0.29668  0.99998  1.0000
  C   C44       1.0  0.41651  0.63002  0.33332  1.0000
  C   C45       1.0  0.74985  0.96335  0.66665  1.0000
  C   C46       1.0  0.08518  0.39907  0.99997  1.0000
  C   C47       1.0  0.41851  0.73240  0.33331  1.0000
  C   C48       1.0  0.75184  0.06573  0.66664  1.0000
  N   N1        1.0  0.08961  0.12808  0.24353  1.0000
  N   N2        1.0  0.42294  0.46141  0.57687  1.0000
  N   N3        1.0  0.75627  0.79474  0.91020  1.0000
  N   N4        1.0  0.08964  0.12809  0.75645  1.0000
  N   N5        1.0  0.42298  0.46143  0.08979  1.0000
  N   N6        1.0  0.75631  0.79476  0.42312  1.0000
  C   C49       1.0  0.08963  0.12809  0.66335  1.0000
  C   C50       1.0  0.42296  0.46143  0.99668  1.0000
  C   C51       1.0  0.75630  0.79476  0.33002  1.0000
  C   C52       1.0  0.08962  0.12809  0.54654  1.0000
  C   C53       1.0  0.42295  0.46143  0.87988  1.0000
  C   C54       1.0  0.75629  0.79476  0.21321  1.0000
  C   C55       1.0  0.08962  0.12809  0.45344  1.0000
  C   C56       1.0  0.42295  0.46142  0.78678  1.0000
  C   C57       1.0  0.75629  0.79475  0.12011  1.0000
  C   C58       1.0  0.08961  0.12808  0.33663  1.0000
  C   C59       1.0  0.42294  0.46142  0.66997  1.0000
  C   C60       1.0  0.75628  0.79475  0.00330  1.0000
