data_image0
_chemical_formula_structural       O14Zn4O2C64N2C24N2H4N2H8N2H10N2H6N2H4N2H4N2H6N2H8N2H8N2H6N2H4
_chemical_formula_sum              "O16 Zn4 C88 N24 H68"
_cell_length_a       17.6991
_cell_length_b       17.6991
_cell_length_c       16.7762
_cell_angle_alpha    90.0044
_cell_angle_beta     90.0003
_cell_angle_gamma    96.7127

_space_group_name_H-M_alt    "P 1"
_space_group_IT_number       1

loop_
  _space_group_symop_operation_xyz
  'x, y, z'

loop_
  _atom_site_type_symbol
  _atom_site_label
  _atom_site_symmetry_multiplicity
  _atom_site_fract_x
  _atom_site_fract_y
  _atom_site_fract_z
  _atom_site_occupancy
  O   O1        1.0  0.99592  0.09571  0.06618  1.0000
  O   O2        1.0  0.49591  0.59571  0.56618  1.0000
  O   O3        1.0  0.21629  0.10816  0.06620  1.0000
  O   O4        1.0  0.71629  0.60816  0.56620  1.0000
  O   O5        1.0  0.09989  0.99175  0.06618  1.0000
  O   O6        1.0  0.59989  0.49175  0.56618  1.0000
  O   O7        1.0  0.11232  0.21212  0.06620  1.0000
  O   O8        1.0  0.61232  0.71212  0.56620  1.0000
  O   O9        1.0  0.09990  0.99175  0.93361  1.0000
  O   O10       1.0  0.59990  0.49175  0.43361  1.0000
  O   O11       1.0  0.21631  0.10816  0.93363  1.0000
  O   O12       1.0  0.71631  0.60816  0.43363  1.0000
  O   O13       1.0  0.99593  0.09571  0.93360  1.0000
  O   O14       1.0  0.49593  0.59571  0.43360  1.0000
  Zn  Zn1       1.0  0.10612  0.10193  0.91256  1.0000
  Zn  Zn2       1.0  0.60612  0.60193  0.41257  1.0000
  Zn  Zn3       1.0  0.10610  0.10193  0.08724  1.0000
  Zn  Zn4       1.0  0.60610  0.60193  0.58724  1.0000
  O   O15       1.0  0.11233  0.21212  0.93362  1.0000
  O   O16       1.0  0.61234  0.71212  0.43362  1.0000
  C   C1        1.0  0.24450  0.10772  0.99992  1.0000
  C   C2        1.0  0.74450  0.60772  0.49992  1.0000
  C   C3        1.0  0.32851  0.10638  0.99993  1.0000
  C   C4        1.0  0.82852  0.60638  0.49993  1.0000
  C   C5        1.0  0.10034  0.96355  0.99990  1.0000
  C   C6        1.0  0.60034  0.46355  0.49989  1.0000
  C   C7        1.0  0.10169  0.87953  0.99990  1.0000
  C   C8        1.0  0.60169  0.37953  0.49989  1.0000
  C   C9        1.0  0.96772  0.09616  0.99989  1.0000
  C   C10       1.0  0.46772  0.59615  0.49989  1.0000
  C   C11       1.0  0.88371  0.09749  0.99988  1.0000
  C   C12       1.0  0.38371  0.59749  0.49988  1.0000
  C   C13       1.0  0.37713  0.17471  0.99993  1.0000
  C   C14       1.0  0.87713  0.67471  0.49993  1.0000
  C   C15       1.0  0.45607  0.17345  0.99992  1.0000
  C   C16       1.0  0.95607  0.67345  0.49992  1.0000
  C   C17       1.0  0.48640  0.10385  0.99991  1.0000
  C   C18       1.0  0.98640  0.60385  0.49991  1.0000
  C   C19       1.0  0.43778  0.03551  0.99991  1.0000
  C   C20       1.0  0.93778  0.53551  0.49991  1.0000
  C   C21       1.0  0.35884  0.03678  0.99991  1.0000
  C   C22       1.0  0.85884  0.53678  0.49991  1.0000
  C   C23       1.0  0.75614  0.03042  0.99989  1.0000
  C   C24       1.0  0.25614  0.53042  0.49989  1.0000
  C   C25       1.0  0.83509  0.02916  0.99989  1.0000
  C   C26       1.0  0.33509  0.52916  0.49989  1.0000
  C   C27       1.0  0.85338  0.16709  0.99990  1.0000
  C   C28       1.0  0.35338  0.66709  0.49990  1.0000
  C   C29       1.0  0.77444  0.16835  0.99990  1.0000
  C   C30       1.0  0.27444  0.66835  0.49990  1.0000
  C   C31       1.0  0.72582  0.10001  0.99989  1.0000
  C   C32       1.0  0.22582  0.60001  0.49989  1.0000
  C   C33       1.0  0.64022  0.10138  0.99990  1.0000
  C   C34       1.0  0.14022  0.60138  0.49990  1.0000
  C   C35       1.0  0.57200  0.10248  0.99991  1.0000
  C   C36       1.0  0.07200  0.60248  0.49991  1.0000
  C   C37       1.0  0.04094  0.35466  0.99991  1.0000
  C   C38       1.0  0.54094  0.85466  0.49991  1.0000
  C   C39       1.0  0.03968  0.43361  0.99990  1.0000
  C   C40       1.0  0.53968  0.93360  0.49990  1.0000
  C   C41       1.0  0.10802  0.48222  0.99991  1.0000
  C   C42       1.0  0.60802  0.98222  0.49991  1.0000
  C   C43       1.0  0.17762  0.45189  0.99992  1.0000
  C   C44       1.0  0.67762  0.95189  0.49991  1.0000
  C   C45       1.0  0.17888  0.37295  0.99992  1.0000
  C   C46       1.0  0.67888  0.87295  0.49992  1.0000
  C   C47       1.0  0.17254  0.77026  0.99991  1.0000
  C   C48       1.0  0.67254  0.27026  0.49991  1.0000
  C   C49       1.0  0.17128  0.84921  0.99991  1.0000
  C   C50       1.0  0.67128  0.34921  0.49991  1.0000
  C   C51       1.0  0.03335  0.83091  0.99989  1.0000
  C   C52       1.0  0.53335  0.33091  0.49989  1.0000
  C   C53       1.0  0.03461  0.75197  0.99990  1.0000
  C   C54       1.0  0.53461  0.25197  0.49990  1.0000
  C   C55       1.0  0.10421  0.72165  0.99990  1.0000
  C   C56       1.0  0.60421  0.22165  0.49990  1.0000
  C   C57       1.0  0.10557  0.63605  0.99990  1.0000
  C   C58       1.0  0.60557  0.13605  0.49990  1.0000
  C   C59       1.0  0.10666  0.56782  0.99991  1.0000
  C   C60       1.0  0.60665  0.06782  0.49991  1.0000
  C   C61       1.0  0.11188  0.24032  0.99991  1.0000
  C   C62       1.0  0.61188  0.74032  0.49991  1.0000
  C   C63       1.0  0.11054  0.32434  0.99992  1.0000
  C   C64       1.0  0.61054  0.82434  0.49992  1.0000
  N   N1        1.0  0.10613  0.10193  0.79335  1.0000
  N   N2        1.0  0.60613  0.60193  0.29335  1.0000
  C   C65       1.0  0.06031  0.14778  0.75164  1.0000
  C   C66       1.0  0.56031  0.64778  0.25164  1.0000
  C   C67       1.0  0.06030  0.14778  0.66819  1.0000
  C   C68       1.0  0.56030  0.64778  0.16819  1.0000
  C   C69       1.0  0.10611  0.10193  0.62645  1.0000
  C   C70       1.0  0.60611  0.60193  0.12645  1.0000
  C   C71       1.0  0.15193  0.05608  0.66817  1.0000
  C   C72       1.0  0.65193  0.55608  0.16817  1.0000
  C   C73       1.0  0.15194  0.05608  0.75162  1.0000
  C   C74       1.0  0.65194  0.55608  0.25162  1.0000
  C   C75       1.0  0.15192  0.05608  0.33163  1.0000
  C   C76       1.0  0.65192  0.55608  0.83163  1.0000
  C   C77       1.0  0.15191  0.05609  0.24817  1.0000
  C   C78       1.0  0.65191  0.55609  0.74817  1.0000
  C   C79       1.0  0.06028  0.14778  0.24819  1.0000
  C   C80       1.0  0.56028  0.64778  0.74819  1.0000
  C   C81       1.0  0.06028  0.14778  0.33164  1.0000
  C   C82       1.0  0.56028  0.64778  0.83164  1.0000
  C   C83       1.0  0.10610  0.10192  0.37335  1.0000
  C   C84       1.0  0.60610  0.60192  0.87335  1.0000
  C   C85       1.0  0.10611  0.10193  0.46384  1.0000
  C   C86       1.0  0.60611  0.60193  0.96384  1.0000
  C   C87       1.0  0.10611  0.10193  0.53596  1.0000
  C   C88       1.0  0.60611  0.60193  0.03596  1.0000
  N   N3        1.0  0.10609  0.10193  0.20645  1.0000
  N   N4        1.0  0.60609  0.60193  0.70645  1.0000
  H   H1        1.0  0.35245  0.23138  0.99994  1.0000
  H   H2        1.0  0.85245  0.73138  0.49994  1.0000
  H   H3        1.0  0.71657  0.97477  0.99988  1.0000
  H   H4        1.0  0.21657  0.47477  0.49988  1.0000
  N   N5        1.0  0.96723  0.30223  0.99989  1.0000
  N   N6        1.0  0.46723  0.80223  0.49989  1.0000
  H   H5        1.0  0.97859  0.24762  0.99990  1.0000
  H   H6        1.0  0.47859  0.74762  0.49990  1.0000
  H   H7        1.0  0.93689  0.31204  0.04904  1.0000
  H   H8        1.0  0.43689  0.81204  0.54904  1.0000
  H   H9        1.0  0.18925  0.01874  0.78559  1.0000
  H   H10       1.0  0.68925  0.51874  0.28559  1.0000
  H   H11       1.0  0.02299  0.18511  0.63423  1.0000
  H   H12       1.0  0.52299  0.68511  0.13423  1.0000
  N   N7        1.0  0.96090  0.69954  0.99988  1.0000
  N   N8        1.0  0.46091  0.19954  0.49988  1.0000
  H   H13       1.0  0.97226  0.64492  0.99988  1.0000
  H   H14       1.0  0.47226  0.14492  0.49988  1.0000
  H   H15       1.0  0.93056  0.70934  0.04902  1.0000
  H   H16       1.0  0.43056  0.20934  0.54902  1.0000
  H   H17       1.0  0.89297  0.22273  0.99990  1.0000
  H   H18       1.0  0.39297  0.72273  0.49990  1.0000
  H   H19       1.0  0.98301  0.45829  0.99990  1.0000
  H   H20       1.0  0.48301  0.95829  0.49990  1.0000
  H   H21       1.0  0.49565  0.22909  0.99993  1.0000
  H   H22       1.0  0.99565  0.72909  0.49993  1.0000
  N   N9        1.0  0.74173  0.24341  0.99992  1.0000
  N   N10       1.0  0.24173  0.74341  0.49992  1.0000
  H   H23       1.0  0.78451  0.28651  0.99993  1.0000
  H   H24       1.0  0.28451  0.78651  0.49993  1.0000
  H   H25       1.0  0.70937  0.24694  0.95078  1.0000
  H   H26       1.0  0.20937  0.74694  0.45078  1.0000
  H   H27       1.0  0.02298  0.18512  0.36562  1.0000
  H   H28       1.0  0.52298  0.68512  0.86562  1.0000
  N   N11       1.0  0.86780  0.95409  0.99987  1.0000
  N   N12       1.0  0.36780  0.45409  0.49987  1.0000
  H   H29       1.0  0.82503  0.91099  0.99987  1.0000
  H   H30       1.0  0.32503  0.41099  0.49987  1.0000
  H   H31       1.0  0.90016  0.95057  0.95073  1.0000
  H   H32       1.0  0.40016  0.45057  0.45072  1.0000
  N   N13       1.0  0.01089  0.19723  0.79665  1.0000
  N   N14       1.0  0.51089  0.69723  0.29665  1.0000
  H   H33       1.0  0.01784  0.19027  0.85584  1.0000
  H   H34       1.0  0.51784  0.69027  0.35584  1.0000
  H   H35       1.0  0.02594  0.25229  0.78206  1.0000
  H   H36       1.0  0.52594  0.75229  0.28206  1.0000
  N   N15       1.0  0.47048  0.96045  0.99988  1.0000
  N   N16       1.0  0.97048  0.46045  0.49988  1.0000
  H   H37       1.0  0.52787  0.97001  0.99988  1.0000
  H   H38       1.0  0.02787  0.47001  0.49988  1.0000
  H   H39       1.0  0.45269  0.93055  0.04903  1.0000
  H   H40       1.0  0.95269  0.43055  0.54903  1.0000
  H   H41       1.0  0.97668  0.85561  0.99990  1.0000
  H   H42       1.0  0.47668  0.35561  0.49990  1.0000
  N   N17       1.0  0.20132  0.00662  0.20315  1.0000
  N   N18       1.0  0.70132  0.50662  0.70315  1.0000
  H   H43       1.0  0.19437  0.01358  0.14396  1.0000
  H   H44       1.0  0.69437  0.51358  0.64396  1.0000
  H   H45       1.0  0.25639  0.02164  0.21774  1.0000
  H   H46       1.0  0.75639  0.52163  0.71774  1.0000
  H   H47       1.0  0.31925  0.98113  0.99991  1.0000
  H   H48       1.0  0.81925  0.48113  0.49991  1.0000
  H   H49       1.0  0.22693  0.88879  0.99991  1.0000
  H   H50       1.0  0.72693  0.38879  0.49991  1.0000
  N   N19       1.0  0.24761  0.73756  0.99990  1.0000
  N   N20       1.0  0.74761  0.23756  0.49990  1.0000
  H   H51       1.0  0.29070  0.78034  0.99990  1.0000
  H   H52       1.0  0.79070  0.28034  0.49990  1.0000
  H   H53       1.0  0.25114  0.70520  0.04904  1.0000
  H   H54       1.0  0.75114  0.20520  0.54904  1.0000
  H   H55       1.0  0.23326  0.49148  0.99992  1.0000
  H   H56       1.0  0.73326  0.99148  0.49991  1.0000
  H   H57       1.0  0.23554  0.34826  0.99992  1.0000
  H   H58       1.0  0.73555  0.84826  0.49992  1.0000
  N   N21       1.0  0.01086  0.19724  0.20320  1.0000
  N   N22       1.0  0.51086  0.69724  0.70320  1.0000
  H   H59       1.0  0.01780  0.19029  0.14400  1.0000
  H   H60       1.0  0.51780  0.69029  0.64400  1.0000
  H   H61       1.0  0.95579  0.18222  0.21779  1.0000
  H   H62       1.0  0.45579  0.68222  0.71779  1.0000
  H   H63       1.0  0.18922  0.01874  0.36558  1.0000
  H   H64       1.0  0.68922  0.51874  0.86558  1.0000
  N   N23       1.0  0.20134  0.00662  0.62316  1.0000
  N   N24       1.0  0.70134  0.50662  0.12316  1.0000
  H   H65       1.0  0.19439  0.01358  0.56397  1.0000
  H   H66       1.0  0.69439  0.51358  0.06397  1.0000
  H   H67       1.0  0.25641  0.02164  0.63775  1.0000
  H   H68       1.0  0.75642  0.52164  0.13775  1.0000
