data_image0
_chemical_formula_structural       O14Zn4O2C36N4C16H4F2H2F6H6F2H2
_chemical_formula_sum              "O16 Zn4 C52 N4 H14 F10"
_cell_length_a       12.8379
_cell_length_b       11.7922
_cell_length_c       11.8921
_cell_angle_alpha    93.9157
_cell_angle_beta     85.6894
_cell_angle_gamma    89.5112

_space_group_name_H-M_alt    "P 1"
_space_group_IT_number       1

loop_
  _space_group_symop_operation_xyz
  'x, y, z'

loop_
  _atom_site_type_symbol
  _atom_site_label
  _atom_site_symmetry_multiplicity
  _atom_site_fract_x
  _atom_site_fract_y
  _atom_site_fract_z
  _atom_site_occupancy
  O   O1        1.0  0.38370  0.28869  0.90602  1.0000
  O   O2        1.0  0.88370  0.78869  0.40602  1.0000
  O   O3        1.0  0.08182  0.27411  0.90601  1.0000
  O   O4        1.0  0.58182  0.77411  0.40601  1.0000
  O   O5        1.0  0.24009  0.11697  0.90602  1.0000
  O   O6        1.0  0.74009  0.61697  0.40602  1.0000
  O   O7        1.0  0.22543  0.44583  0.90600  1.0000
  O   O8        1.0  0.72543  0.94583  0.40600  1.0000
  O   O9        1.0  0.22689  0.13005  0.09403  1.0000
  O   O10       1.0  0.72689  0.63005  0.59403  1.0000
  O   O11       1.0  0.06862  0.28719  0.09402  1.0000
  O   O12       1.0  0.56862  0.78719  0.59402  1.0000
  O   O13       1.0  0.37051  0.30177  0.09402  1.0000
  O   O14       1.0  0.87051  0.80177  0.59402  1.0000
  Zn  Zn1       1.0  0.21747  0.29655  0.12387  1.0000
  Zn  Zn2       1.0  0.71747  0.79655  0.62387  1.0000
  Zn  Zn3       1.0  0.23486  0.27932  0.87616  1.0000
  Zn  Zn4       1.0  0.73486  0.77932  0.37616  1.0000
  O   O15       1.0  0.21224  0.45890  0.09401  1.0000
  O   O16       1.0  0.71224  0.95890  0.59401  1.0000
  C   C1        1.0  0.03657  0.27572  0.00001  1.0000
  C   C2        1.0  0.53657  0.77572  0.50001  1.0000
  C   C3        1.0  0.92141  0.26103  0.00001  1.0000
  C   C4        1.0  0.42141  0.76102  0.50001  1.0000
  C   C5        1.0  0.68144  0.43767  0.00002  1.0000
  C   C6        1.0  0.18144  0.93767  0.50002  1.0000
  C   C7        1.0  0.57324  0.42387  0.00002  1.0000
  C   C8        1.0  0.07324  0.92387  0.50001  1.0000
  C   C9        1.0  0.59680  0.21962  0.00001  1.0000
  C   C10       1.0  0.09680  0.71962  0.50001  1.0000
  C   C11       1.0  0.70500  0.23342  0.00002  1.0000
  C   C12       1.0  0.20500  0.73342  0.50001  1.0000
  C   C13       1.0  0.74732  0.34245  0.00002  1.0000
  C   C14       1.0  0.24732  0.84245  0.50001  1.0000
  C   C15       1.0  0.85553  0.35625  0.00001  1.0000
  C   C16       1.0  0.35553  0.85625  0.50001  1.0000
  C   C17       1.0  0.87908  0.15201  0.00001  1.0000
  C   C18       1.0  0.37908  0.65201  0.50001  1.0000
  C   C19       1.0  0.77088  0.13820  0.00001  1.0000
  C   C20       1.0  0.27088  0.63821  0.50001  1.0000
  C   C21       1.0  0.23257  0.08113  0.00002  1.0000
  C   C22       1.0  0.73257  0.58113  0.50002  1.0000
  C   C23       1.0  0.22981  0.95483  0.00002  1.0000
  C   C24       1.0  0.72981  0.45483  0.50002  1.0000
  C   C25       1.0  0.22475  0.72361  0.00000  1.0000
  C   C26       1.0  0.72475  0.22361  0.50000  1.0000
  C   C27       1.0  0.22756  0.85228  0.00001  1.0000
  C   C28       1.0  0.72756  0.35228  0.50001  1.0000
  C   C29       1.0  0.41575  0.30016  0.00002  1.0000
  C   C30       1.0  0.91575  0.80016  0.50002  1.0000
  C   C31       1.0  0.53091  0.31485  0.00001  1.0000
  C   C32       1.0  0.03091  0.81485  0.50001  1.0000
  C   C33       1.0  0.21976  0.49475  0.00001  1.0000
  C   C34       1.0  0.71976  0.99475  0.50001  1.0000
  C   C35       1.0  0.22251  0.62104  1.00000  1.0000
  C   C36       1.0  0.72251  0.12104  0.50000  1.0000
  N   N1        1.0  0.20561  0.30832  0.29292  1.0000
  N   N2        1.0  0.70561  0.80832  0.79292  1.0000
  N   N3        1.0  0.24672  0.26755  0.70711  1.0000
  N   N4        1.0  0.74672  0.76755  0.20711  1.0000
  C   C37       1.0  0.32924  0.18565  0.52958  1.0000
  C   C38       1.0  0.82924  0.68565  0.02958  1.0000
  C   C39       1.0  0.32096  0.19388  0.64792  1.0000
  C   C40       1.0  0.82096  0.69388  0.14792  1.0000
  C   C41       1.0  0.18076  0.33300  0.64795  1.0000
  C   C42       1.0  0.68076  0.83300  0.14795  1.0000
  C   C43       1.0  0.18904  0.32477  0.52961  1.0000
  C   C44       1.0  0.68904  0.82477  0.02961  1.0000
  C   C45       1.0  0.26328  0.25109  0.47043  1.0000
  C   C46       1.0  0.76328  0.75109  0.97043  1.0000
  C   C47       1.0  0.27157  0.24287  0.35208  1.0000
  C   C48       1.0  0.77157  0.74287  0.85208  1.0000
  C   C49       1.0  0.13137  0.38198  0.35211  1.0000
  C   C50       1.0  0.63137  0.88198  0.85211  1.0000
  C   C51       1.0  0.12309  0.39021  0.47045  1.0000
  C   C52       1.0  0.62309  0.89021  0.97045  1.0000
  H   H1        1.0  0.56232  0.13087  0.00011  1.0000
  H   H2        1.0  0.06231  0.63087  0.50011  1.0000
  H   H3        1.0  0.93273  0.07447  0.00001  1.0000
  H   H4        1.0  0.43273  0.57447  0.50001  1.0000
  F   F1        1.0  0.50313  0.52522  0.00002  1.0000
  F   F2        1.0  0.00313  0.02522  0.50002  1.0000
  H   H5        1.0  0.33202  0.18288  0.30390  1.0000
  H   H6        1.0  0.83202  0.68288  0.80390  1.0000
  F   F3        1.0  0.04408  0.46861  0.53345  1.0000
  F   F4        1.0  0.54408  0.96861  0.03345  1.0000
  F   F5        1.0  0.10174  0.41139  0.71095  1.0000
  F   F6        1.0  0.60174  0.91139  0.21094  1.0000
  F   F7        1.0  0.72583  0.02218  0.00002  1.0000
  F   F8        1.0  0.22583  0.52218  0.50002  1.0000
  H   H7        1.0  0.37466  0.14059  0.69608  1.0000
  H   H8        1.0  0.87466  0.64059  0.19608  1.0000
  H   H9        1.0  0.38969  0.12567  0.48139  1.0000
  H   H10       1.0  0.88969  0.62567  0.98139  1.0000
  H   H11       1.0  0.88998  0.44503  0.00001  1.0000
  H   H12       1.0  0.38998  0.94503  0.50001  1.0000
  F   F9        1.0  0.06118  0.45164  0.28915  1.0000
  F   F10       1.0  0.56118  0.95164  0.78915  1.0000
  H   H13       1.0  0.71590  0.52645  0.00002  1.0000
  H   H14       1.0  0.21590  0.02645  0.50001  1.0000
