data_image0
_chemical_formula_structural       O7Cu2OC26N2C6H2NH4NH4NH5NH6NH2NH2NH2
_chemical_formula_sum              "O8 Cu2 C32 N9 H27"
_cell_length_a       10.6546
_cell_length_b       13.3391
_cell_length_c       9.13031
_cell_angle_alpha    90.0003
_cell_angle_beta     89.9962
_cell_angle_gamma    100.057

_space_group_name_H-M_alt    "P 1"
_space_group_IT_number       1

loop_
  _space_group_symop_operation_xyz
  'x, y, z'

loop_
  _atom_site_type_symbol
  _atom_site_label
  _atom_site_symmetry_multiplicity
  _atom_site_fract_x
  _atom_site_fract_y
  _atom_site_fract_z
  _atom_site_occupancy
  O   O1        1.0  0.71593  0.14243  0.87808  1.0000
  O   O2        1.0  0.35503  0.15600  0.87811  1.0000
  O   O3        1.0  0.49406  0.00166  0.87810  1.0000
  O   O4        1.0  0.57690  0.29677  0.87809  1.0000
  O   O5        1.0  0.49406  0.00167  0.12170  1.0000
  O   O6        1.0  0.35503  0.15600  0.12170  1.0000
  O   O7        1.0  0.71593  0.14243  0.12168  1.0000
  Cu  Cu1       1.0  0.53548  0.14922  0.14394  1.0000
  Cu  Cu2       1.0  0.53548  0.14921  0.85585  1.0000
  O   O8        1.0  0.57690  0.29677  0.12169  1.0000
  C   C1        1.0  0.30790  0.15501  0.99991  1.0000
  C   C2        1.0  0.16745  0.15202  0.99992  1.0000
  C   C3        1.0  0.11864  0.24290  0.99989  1.0000
  C   C4        1.0  0.98667  0.24009  0.99987  1.0000
  C   C5        1.0  0.95232  0.05553  0.99989  1.0000
  C   C6        1.0  0.08429  0.05834  0.99992  1.0000
  C   C7        1.0  0.13848  0.34945  0.99987  1.0000
  C   C8        1.0  0.00651  0.34664  0.99985  1.0000
  C   C9        1.0  0.48006  0.96388  0.99990  1.0000
  C   C10       1.0  0.43835  0.85128  0.99990  1.0000
  C   C11       1.0  0.76267  0.48876  0.99988  1.0000
  C   C12       1.0  0.80186  0.59455  0.99989  1.0000
  C   C13       1.0  0.71099  0.65874  0.99989  1.0000
  C   C14       1.0  0.58092  0.61713  0.99988  1.0000
  C   C15       1.0  0.54172  0.51133  0.99988  1.0000
  C   C16       1.0  0.49004  0.68131  0.99989  1.0000
  C   C17       1.0  0.35997  0.63969  0.99989  1.0000
  C   C18       1.0  0.32078  0.53391  0.99988  1.0000
  C   C19       1.0  0.41165  0.46972  0.99988  1.0000
  C   C20       1.0  0.52923  0.78710  0.99989  1.0000
  C   C21       1.0  0.30828  0.80967  0.99990  1.0000
  C   C22       1.0  0.26909  0.70388  0.99989  1.0000
  C   C23       1.0  0.76306  0.14343  0.99987  1.0000
  C   C24       1.0  0.90351  0.14641  0.99986  1.0000
  C   C25       1.0  0.59089  0.33456  0.99988  1.0000
  C   C26       1.0  0.63260  0.44715  0.99988  1.0000
  N   N1        1.0  0.53549  0.14922  0.34656  1.0000
  N   N2        1.0  0.53548  0.14920  0.65323  1.0000
  C   C27       1.0  0.59708  0.08090  0.42321  1.0000
  C   C28       1.0  0.59707  0.08089  0.57654  1.0000
  C   C29       1.0  0.47388  0.21752  0.57657  1.0000
  C   C30       1.0  0.47388  0.21753  0.42323  1.0000
  C   C31       1.0  0.66821  0.00202  0.42319  1.0000
  C   C32       1.0  0.66820  0.00201  0.57653  1.0000
  H   H1        1.0  0.97833  0.38679  0.89789  1.0000
  H   H2        1.0  0.37975  0.38358  0.99987  1.0000
  N   N3        1.0  0.21025  0.87888  0.99989  1.0000
  H   H3        1.0  0.15513  0.86540  0.09020  1.0000
  H   H4        1.0  0.25491  0.95219  0.99983  1.0000
  H   H5        1.0  0.77058  0.01939  0.61814  1.0000
  H   H6        1.0  0.18559  0.38338  0.89470  1.0000
  N   N4        1.0  0.40742  0.29121  0.34057  1.0000
  H   H7        1.0  0.44698  0.36329  0.36726  1.0000
  H   H8        1.0  0.41677  0.28076  0.23183  1.0000
  H   H9        1.0  0.63514  0.82097  0.99990  1.0000
  H   H10       1.0  0.74291  0.74487  0.99990  1.0000
  N   N5        1.0  0.86068  0.41954  0.99987  1.0000
  H   H11       1.0  0.91579  0.43302  0.09017  1.0000
  H   H12       1.0  0.81602  0.34624  0.99982  1.0000
  H   H13       1.0  0.18188  0.39113  0.10182  1.0000
  H   H14       1.0  0.90777  0.62842  0.99990  1.0000
  H   H15       1.0  0.97171  0.37885  0.10501  1.0000
  N   N6        1.0  0.13693  0.96033  0.99999  1.0000
  H   H16       1.0  0.06422  0.90055  0.99999  1.0000
  H   H17       1.0  0.19096  0.95745  0.90970  1.0000
  H   H18       1.0  0.88460  0.97925  0.99987  1.0000
  H   H19       1.0  0.61281  0.92835  0.62409  1.0000
  H   H20       1.0  0.76773  0.02672  0.37563  1.0000
  H   H21       1.0  0.21486  0.50003  0.99989  1.0000
  N   N7        1.0  0.12880  0.65900  0.99988  1.0000
  H   H22       1.0  0.11777  0.58224  0.99988  1.0000
  H   H23       1.0  0.08741  0.68241  0.09019  1.0000
  N   N8        1.0  0.40743  0.29119  0.65927  1.0000
  H   H24       1.0  0.41677  0.28082  0.76804  1.0000
  H   H25       1.0  0.44703  0.36325  0.63248  1.0000
  N   N9        1.0  0.60495  0.89878  0.36805  1.0000
  H   H26       1.0  0.57671  0.85270  0.45404  1.0000
  H   H27       1.0  0.52840  0.90644  0.30656  1.0000
