data_image0
_chemical_formula_structural       O7Cu2OC2NC12ONCOC10NC11O2C4NC12HC2H7C2H5C2H5C2H5C2H5C2H5C2H5C2H6C2H5C2H5C2H5C2H5C2H5C2H5C2H10
_chemical_formula_sum              "O12 Cu2 C82 N4 H84"
_cell_length_a       15.9446
_cell_length_b       22.0102
_cell_length_c       15.9445
_cell_angle_alpha    89.9899
_cell_angle_beta     83.4869
_cell_angle_gamma    90.004

_space_group_name_H-M_alt    "P 1"
_space_group_IT_number       1

loop_
  _space_group_symop_operation_xyz
  'x, y, z'

loop_
  _atom_site_type_symbol
  _atom_site_label
  _atom_site_symmetry_multiplicity
  _atom_site_fract_x
  _atom_site_fract_y
  _atom_site_fract_z
  _atom_site_occupancy
  O   O1        1.0  0.11451  0.05045  0.10832  1.0000
  O   O2        1.0  0.86996  0.05047  0.12168  1.0000
  O   O3        1.0  0.99894  0.05046  0.99272  1.0000
  O   O4        1.0  0.98553  0.05046  0.23728  1.0000
  O   O5        1.0  0.99891  0.94941  0.99274  1.0000
  O   O6        1.0  0.86993  0.94942  0.12170  1.0000
  O   O7        1.0  0.11448  0.94940  0.10834  1.0000
  Cu  Cu1       1.0  0.99221  0.94018  0.11502  1.0000
  Cu  Cu2       1.0  0.99223  0.05969  0.11500  1.0000
  O   O8        1.0  0.98551  0.94941  0.23730  1.0000
  C   C1        1.0  0.83865  0.99994  0.12114  1.0000
  C   C2        1.0  0.74540  0.99995  0.11947  1.0000
  N   N1        1.0  0.99219  0.85613  0.11504  1.0000
  C   C3        1.0  0.53056  0.99994  0.03557  1.0000
  C   C4        1.0  0.46955  0.04976  0.07452  1.0000
  C   C5        1.0  0.57468  0.99994  0.11647  1.0000
  C   C6        1.0  0.46955  0.95014  0.07456  1.0000
  C   C7        1.0  0.40977  0.99993  0.11356  1.0000
  C   C8        1.0  0.51489  0.04981  0.15544  1.0000
  C   C9        1.0  0.51490  0.95013  0.15547  1.0000
  C   C10       1.0  0.45390  0.99997  0.19448  1.0000
  C   C11       1.0  0.66968  0.99995  0.11814  1.0000
  C   C12       1.0  0.31477  0.99993  0.11189  1.0000
  C   C13       1.0  0.04935  0.43635  0.05791  1.0000
  C   C14       1.0  0.04935  0.37274  0.05790  1.0000
  O   O9        1.0  0.09792  0.33985  0.00934  1.0000
  N   N2        1.0  0.99223  0.34092  0.11498  1.0000
  C   C15       1.0  0.93510  0.37272  0.17207  1.0000
  O   O10       1.0  0.88652  0.33981  0.22062  1.0000
  C   C16       1.0  0.93509  0.43632  0.17207  1.0000
  C   C17       1.0  0.99222  0.46814  0.11499  1.0000
  C   C18       1.0  0.10647  0.46817  0.00083  1.0000
  C   C19       1.0  0.10647  0.53177  0.00084  1.0000
  C   C20       1.0  0.04934  0.56356  0.05792  1.0000
  C   C21       1.0  0.99222  0.53174  0.11500  1.0000
  C   C22       1.0  0.87796  0.46811  0.22915  1.0000
  C   C23       1.0  0.87795  0.53172  0.22915  1.0000
  C   C24       1.0  0.93508  0.56354  0.17207  1.0000
  C   C25       1.0  0.93509  0.62713  0.17209  1.0000
  N   N3        1.0  0.99221  0.65895  0.11500  1.0000
  C   C26       1.0  0.04934  0.62716  0.05792  1.0000
  C   C27       1.0  0.93512  0.23914  0.17206  1.0000
  C   C28       1.0  0.93513  0.17553  0.17206  1.0000
  C   C29       1.0  0.04938  0.17556  0.05790  1.0000
  C   C30       1.0  0.04937  0.23917  0.05790  1.0000
  C   C31       1.0  0.99224  0.27096  0.11498  1.0000
  C   C32       1.0  0.04933  0.76073  0.05794  1.0000
  C   C33       1.0  0.04932  0.82434  0.05796  1.0000
  C   C34       1.0  0.93507  0.82431  0.17212  1.0000
  C   C35       1.0  0.93507  0.76070  0.17211  1.0000
  C   C36       1.0  0.99221  0.72892  0.11501  1.0000
  O   O11       1.0  0.88655  0.66007  0.22062  1.0000
  O   O12       1.0  0.09791  0.66008  0.00937  1.0000
  C   C37       1.0  0.14579  0.99993  0.10889  1.0000
  C   C38       1.0  0.23904  0.99993  0.11055  1.0000
  C   C39       1.0  0.99838  0.99994  0.96144  1.0000
  C   C40       1.0  0.99673  0.99995  0.86819  1.0000
  N   N4        1.0  0.99225  0.14374  0.11498  1.0000
  C   C41       1.0  0.07265  0.99994  0.63243  1.0000
  C   C42       1.0  0.03172  0.04976  0.58185  1.0000
  C   C43       1.0  0.99369  0.99994  0.69747  1.0000
  C   C44       1.0  0.03168  0.95013  0.58190  1.0000
  C   C45       1.0  0.99075  0.99993  0.53256  1.0000
  C   C46       1.0  0.95278  0.04981  0.64812  1.0000
  C   C47       1.0  0.95275  0.95014  0.64817  1.0000
  C   C48       1.0  0.91176  0.99997  0.59762  1.0000
  C   C49       1.0  0.99538  0.99995  0.79247  1.0000
  C   C50       1.0  0.98906  0.99993  0.43756  1.0000
  C   C51       1.0  0.98606  0.99993  0.26858  1.0000
  C   C52       1.0  0.98771  0.99993  0.36183  1.0000
  H   H1        1.0  0.56391  0.00001  0.96843  1.0000
  C   C53       1.0  0.59880  0.85930  0.14688  1.0000
  C   C54       1.0  0.54207  0.89327  0.20163  1.0000
  H   H2        1.0  0.61558  0.82420  0.17538  1.0000
  H   H3        1.0  0.57227  0.84735  0.09908  1.0000
  H   H4        1.0  0.64704  0.88333  0.12905  1.0000
  H   H5        1.0  0.49382  0.86924  0.21945  1.0000
  H   H6        1.0  0.56859  0.90523  0.24944  1.0000
  H   H7        1.0  0.88859  0.26502  0.21855  1.0000
  H   H8        1.0  0.53488  0.09197  0.18962  1.0000
  C   C55       1.0  0.09873  0.15600  0.91250  1.0000
  C   C56       1.0  0.11217  0.14062  0.99514  1.0000
  H   H9        1.0  0.13750  0.13443  0.87376  1.0000
  H   H10       1.0  0.04269  0.14558  0.90335  1.0000
  H   H11       1.0  0.10691  0.19844  0.90434  1.0000
  H   H12       1.0  0.10399  0.09818  0.00330  1.0000
  H   H13       1.0  0.16824  0.15104  0.00429  1.0000
  C   C57       1.0  0.17897  0.94779  0.69999  1.0000
  C   C58       1.0  0.16447  0.99999  0.65354  1.0000
  H   H14       1.0  0.23566  0.94783  0.71301  1.0000
  H   H15       1.0  0.14162  0.94741  0.75082  1.0000
  H   H16       1.0  0.16949  0.91273  0.66762  1.0000
  H   H17       1.0  0.17395  0.03505  0.68590  1.0000
  H   H18       1.0  0.20184  0.00038  0.60270  1.0000
  C   C59       1.0  0.48152  0.89338  0.94517  1.0000
  C   C60       1.0  0.44243  0.89327  0.02836  1.0000
  H   H19       1.0  0.46478  0.85828  0.91665  1.0000
  H   H20       1.0  0.46523  0.92876  0.91698  1.0000
  H   H21       1.0  0.54107  0.89317  0.94545  1.0000
  H   H22       1.0  0.38288  0.89349  0.02808  1.0000
  H   H23       1.0  0.45871  0.85789  0.05656  1.0000
  C   C61       1.0  0.16364  0.31076  0.03966  1.0000
  C   C62       1.0  0.11211  0.27416  0.99512  1.0000
  H   H24       1.0  0.20236  0.33236  0.00090  1.0000
  H   H25       1.0  0.12961  0.33878  0.07367  1.0000
  H   H26       1.0  0.19390  0.28595  0.07462  1.0000
  H   H27       1.0  0.08185  0.29897  0.96017  1.0000
  H   H28       1.0  0.14614  0.24614  0.96110  1.0000
  C   C63       1.0  0.16225  0.81798  0.94510  1.0000
  C   C64       1.0  0.11212  0.85932  0.99520  1.0000
  H   H29       1.0  0.20101  0.83957  0.90636  1.0000
  H   H30       1.0  0.19246  0.79317  0.98008  1.0000
  H   H31       1.0  0.12729  0.79317  0.91486  1.0000
  H   H32       1.0  0.14708  0.88412  0.02544  1.0000
  H   H33       1.0  0.08191  0.88414  0.96022  1.0000
  C   C65       1.0  0.77874  0.05223  0.61049  1.0000
  C   C66       1.0  0.81987  0.00001  0.57673  1.0000
  H   H34       1.0  0.72202  0.05225  0.59759  1.0000
  H   H35       1.0  0.77931  0.05256  0.66999  1.0000
  H   H36       1.0  0.80700  0.08728  0.58677  1.0000
  H   H37       1.0  0.79162  0.96496  0.60046  1.0000
  H   H38       1.0  0.81930  0.99968  0.51722  1.0000
  C   C67       1.0  0.82398  0.89276  0.66881  1.0000
  C   C68       1.0  0.90776  0.89327  0.68728  1.0000
  H   H39       1.0  0.79621  0.85765  0.69295  1.0000
  H   H40       1.0  0.79585  0.92813  0.69160  1.0000
  H   H41       1.0  0.82305  0.89215  0.60935  1.0000
  H   H42       1.0  0.90868  0.89389  0.74674  1.0000
  H   H43       1.0  0.93589  0.85790  0.66449  1.0000
  H   H44       1.0  0.09585  0.73486  0.01145  1.0000
  C   C69       1.0  0.14454  0.91093  0.48441  1.0000
  C   C70       1.0  0.07670  0.89327  0.54286  1.0000
  H   H45       1.0  0.17234  0.87582  0.46031  1.0000
  H   H46       1.0  0.12417  0.93454  0.44114  1.0000
  H   H47       1.0  0.18312  0.93439  0.51214  1.0000
  H   H48       1.0  0.03812  0.86980  0.51512  1.0000
  H   H49       1.0  0.09707  0.86965  0.58613  1.0000
  C   C71       1.0  0.10678  0.14143  0.60653  1.0000
  C   C72       1.0  0.07675  0.10662  0.54276  1.0000
  H   H50       1.0  0.13459  0.17653  0.58239  1.0000
  H   H51       1.0  0.06076  0.15341  0.64616  1.0000
  H   H52       1.0  0.14536  0.11797  0.63426  1.0000
  H   H53       1.0  0.03817  0.13008  0.51503  1.0000
  H   H54       1.0  0.12278  0.09464  0.50311  1.0000
  C   C73       1.0  0.82220  0.18191  0.28491  1.0000
  C   C74       1.0  0.87233  0.14057  0.23481  1.0000
  H   H55       1.0  0.78342  0.16032  0.32364  1.0000
  H   H56       1.0  0.85715  0.20671  0.31515  1.0000
  H   H57       1.0  0.79200  0.20672  0.24992  1.0000
  H   H58       1.0  0.90254  0.11575  0.26981  1.0000
  H   H59       1.0  0.83737  0.11575  0.20457  1.0000
  C   C75       1.0  0.76501  0.47450  0.34198  1.0000
  C   C76       1.0  0.81515  0.43315  0.29189  1.0000
  H   H60       1.0  0.72623  0.45291  0.38071  1.0000
  H   H61       1.0  0.79997  0.49930  0.37222  1.0000
  H   H62       1.0  0.73482  0.49931  0.30698  1.0000
  H   H63       1.0  0.84535  0.40834  0.32689  1.0000
  H   H64       1.0  0.78019  0.40834  0.26165  1.0000
  C   C77       1.0  0.15567  0.55114  0.85540  1.0000
  C   C78       1.0  0.16926  0.56663  0.93796  1.0000
  H   H65       1.0  0.19443  0.57264  0.81655  1.0000
  H   H66       1.0  0.16376  0.50870  0.84738  1.0000
  H   H67       1.0  0.09961  0.56160  0.84630  1.0000
  H   H68       1.0  0.22531  0.55617  0.94707  1.0000
  H   H69       1.0  0.16118  0.60909  0.94599  1.0000
  C   C79       1.0  0.48150  0.10654  0.94512  1.0000
  C   C80       1.0  0.44241  0.10663  0.02832  1.0000
  H   H70       1.0  0.46474  0.14164  0.91660  1.0000
  H   H71       1.0  0.54103  0.10677  0.94539  1.0000
  H   H72       1.0  0.46521  0.07116  0.91694  1.0000
  H   H73       1.0  0.45871  0.14201  0.05650  1.0000
  H   H74       1.0  0.38286  0.10641  0.02805  1.0000
  C   C81       1.0  0.43198  0.05221  0.32734  1.0000
  C   C82       1.0  0.40910  0.00000  0.28521  1.0000
  H   H75       1.0  0.40432  0.05223  0.38335  1.0000
  H   H76       1.0  0.49135  0.05254  0.32888  1.0000
  H   H77       1.0  0.41576  0.08726  0.29838  1.0000
  H   H78       1.0  0.42533  0.96494  0.31417  1.0000
  H   H79       1.0  0.34972  0.99966  0.28367  1.0000
  H   H80       1.0  0.15299  0.44229  0.95434  1.0000
  H   H81       1.0  0.83142  0.55760  0.27563  1.0000
  H   H82       1.0  0.88856  0.73480  0.21860  1.0000
  H   H83       1.0  0.88855  0.85020  0.21860  1.0000
  H   H84       1.0  0.91946  0.09198  0.67693  1.0000
