data_image0
_chemical_formula_structural       O7Zn2OC12N2C20N2C10N2H2F3HFH2FH5F9
_chemical_formula_sum              "O8 Zn2 C42 N6 H10 F14"
_cell_length_a       16.9927
_cell_length_b       14.8536
_cell_length_c       16.0538
_cell_angle_alpha    92.573
_cell_angle_beta     87.249
_cell_angle_gamma    87.1516

_space_group_name_H-M_alt    "P 1"
_space_group_IT_number       1

loop_
  _space_group_symop_operation_xyz
  'x, y, z'

loop_
  _atom_site_type_symbol
  _atom_site_label
  _atom_site_symmetry_multiplicity
  _atom_site_fract_x
  _atom_site_fract_y
  _atom_site_fract_z
  _atom_site_occupancy
  O   O1        1.0  0.04390  0.18763  0.93069  1.0000
  O   O2        1.0  0.81561  0.18553  0.93066  1.0000
  O   O3        1.0  0.93585  0.05578  0.93067  1.0000
  O   O4        1.0  0.92366  0.31738  0.93068  1.0000
  O   O5        1.0  0.92923  0.06289  0.06953  1.0000
  O   O6        1.0  0.80899  0.19264  0.06952  1.0000
  O   O7        1.0  0.03728  0.19474  0.06954  1.0000
  Zn  Zn1       1.0  0.92209  0.19482  0.09158  1.0000
  Zn  Zn2       1.0  0.93081  0.18545  0.90863  1.0000
  O   O8        1.0  0.91704  0.32449  0.06953  1.0000
  C   C1        1.0  0.78309  0.18638  0.00009  1.0000
  C   C2        1.0  0.69603  0.17833  0.00008  1.0000
  C   C3        1.0  0.64588  0.25601  0.00008  1.0000
  C   C4        1.0  0.56408  0.24844  0.00009  1.0000
  C   C5        1.0  0.53245  0.16320  0.00009  1.0000
  C   C6        1.0  0.58261  0.08551  0.00010  1.0000
  C   C7        1.0  0.66440  0.09308  0.00009  1.0000
  C   C8        1.0  0.28881  0.13182  0.00012  1.0000
  C   C9        1.0  0.20701  0.12426  0.00012  1.0000
  C   C10       1.0  0.18849  0.28718  0.00012  1.0000
  C   C11       1.0  0.27029  0.29474  0.00011  1.0000
  C   C12       1.0  0.32044  0.21706  0.00011  1.0000
  N   N1        1.0  0.44884  0.15546  0.00010  1.0000
  N   N2        1.0  0.40405  0.22480  0.00011  1.0000
  C   C13       1.0  0.93199  0.02570  0.00010  1.0000
  C   C14       1.0  0.93034  0.92550  0.00009  1.0000
  C   C15       1.0  0.85191  0.50743  0.00010  1.0000
  C   C16       1.0  0.99476  0.49624  0.00011  1.0000
  C   C17       1.0  0.99631  0.59038  0.00011  1.0000
  C   C18       1.0  0.92567  0.64306  0.00010  1.0000
  C   C19       1.0  0.85346  0.60159  0.00010  1.0000
  C   C20       1.0  0.06852  0.63186  0.00012  1.0000
  C   C21       1.0  0.07008  0.72601  0.00012  1.0000
  C   C22       1.0  0.99943  0.77868  0.00010  1.0000
  C   C23       1.0  0.92722  0.73721  0.00010  1.0000
  C   C24       1.0  0.85658  0.78988  0.00009  1.0000
  C   C25       1.0  0.78437  0.74841  0.00008  1.0000
  C   C26       1.0  0.78282  0.65426  0.00008  1.0000
  C   C27       1.0  0.00098  0.87283  0.00010  1.0000
  C   C28       1.0  0.85813  0.88403  0.00009  1.0000
  C   C29       1.0  0.06980  0.19388  0.00012  1.0000
  C   C30       1.0  0.15686  0.20193  0.00012  1.0000
  C   C31       1.0  0.92090  0.35456  0.00011  1.0000
  C   C32       1.0  0.92256  0.45476  0.00011  1.0000
  N   N3        1.0  0.91614  0.20121  0.21644  1.0000
  N   N4        1.0  0.93676  0.17905  0.78377  1.0000
  C   C33       1.0  0.96732  0.14602  0.26014  1.0000
  C   C34       1.0  0.96317  0.15050  0.34754  1.0000
  C   C35       1.0  0.90784  0.21018  0.39125  1.0000
  C   C36       1.0  0.85665  0.26537  0.34755  1.0000
  C   C37       1.0  0.86080  0.26088  0.26014  1.0000
  C   C38       1.0  0.88972  0.22975  0.65266  1.0000
  C   C39       1.0  0.88558  0.23423  0.74007  1.0000
  C   C40       1.0  0.99209  0.11937  0.74006  1.0000
  C   C41       1.0  0.99624  0.11489  0.65265  1.0000
  C   C42       1.0  0.94505  0.17008  0.60896  1.0000
  N   N5        1.0  0.90360  0.21476  0.48059  1.0000
  N   N6        1.0  0.94929  0.16549  0.51962  1.0000
  H   H1        1.0  0.70524  0.02983  0.00009  1.0000
  H   H2        1.0  0.12603  0.58897  0.00014  1.0000
  F   F1        1.0  0.05513  0.05138  0.60614  1.0000
  F   F2        1.0  0.04657  0.06064  0.78657  1.0000
  F   F3        1.0  0.06994  0.44018  0.00014  1.0000
  H   H3        1.0  0.12887  0.75977  0.00013  1.0000
  F   F4        1.0  0.02622  0.08252  0.21363  1.0000
  H   H4        1.0  0.79312  0.47366  0.00009  1.0000
  H   H5        1.0  0.55684  0.01611  0.00011  1.0000
  F   F5        1.0  0.78294  0.94009  0.00007  1.0000
  H   H6        1.0  0.52325  0.31169  0.00009  1.0000
  H   H7        1.0  0.14765  0.35043  0.00011  1.0000
  H   H8        1.0  0.72403  0.62048  0.00007  1.0000
  H   H9        1.0  0.05977  0.90660  0.00011  1.0000
  H   H10       1.0  0.72685  0.79131  0.00008  1.0000
  F   F6        1.0  0.01764  0.09177  0.39405  1.0000
  F   F7        1.0  0.80632  0.31961  0.21364  1.0000
  F   F8        1.0  0.82668  0.29775  0.78658  1.0000
  F   F9        1.0  0.30395  0.38548  0.00010  1.0000
  F   F10       1.0  0.83524  0.28848  0.60616  1.0000
  F   F11       1.0  0.34218  0.04914  0.00012  1.0000
  F   F12       1.0  0.67954  0.34674  0.00007  1.0000
  F   F13       1.0  0.17334  0.03352  0.00014  1.0000
  F   F14       1.0  0.79776  0.32887  0.39406  1.0000
