data_image0
_chemical_formula_structural       O21Cu6O3C66O3N3C3O3C30N3C33O6C42N6C48H3Cl6H3Cl9H3Cl6H9Cl3H3Cl3H39Cl3H3Cl3H9Cl3H6Cl3H3
_chemical_formula_sum              "O36 Cu6 C222 N12 H81 Cl39"
_cell_length_a       27.732
_cell_length_b       19.2889
_cell_length_c       17.7663
_cell_angle_alpha    89.9898
_cell_angle_beta     89.9986
_cell_angle_gamma    97.1118

_space_group_name_H-M_alt    "P 1"
_space_group_IT_number       1

loop_
  _space_group_symop_operation_xyz
  'x, y, z'

loop_
  _atom_site_type_symbol
  _atom_site_label
  _atom_site_symmetry_multiplicity
  _atom_site_fract_x
  _atom_site_fract_y
  _atom_site_fract_z
  _atom_site_occupancy
  O   O1        1.0  0.93971  0.92098  0.93740  1.0000
  O   O2        1.0  0.27305  0.25431  0.27074  1.0000
  O   O3        1.0  0.60638  0.58765  0.60407  1.0000
  O   O4        1.0  0.93158  0.71867  0.93741  1.0000
  O   O5        1.0  0.26491  0.05200  0.27074  1.0000
  O   O6        1.0  0.59824  0.38533  0.60407  1.0000
  O   O7        1.0  0.00602  0.82611  0.93739  1.0000
  O   O8        1.0  0.33936  0.15944  0.27073  1.0000
  O   O9        1.0  0.67269  0.49277  0.60406  1.0000
  O   O10       1.0  0.86527  0.81354  0.93742  1.0000
  O   O11       1.0  0.19860  0.14687  0.27075  1.0000
  O   O12       1.0  0.53193  0.48021  0.60408  1.0000
  O   O13       1.0  0.00603  0.82609  0.06258  1.0000
  O   O14       1.0  0.33936  0.15942  0.39592  1.0000
  O   O15       1.0  0.67269  0.49276  0.72925  1.0000
  O   O16       1.0  0.93158  0.71865  0.06260  1.0000
  O   O17       1.0  0.26491  0.05198  0.39593  1.0000
  O   O18       1.0  0.59825  0.38532  0.72926  1.0000
  O   O19       1.0  0.93972  0.92096  0.06259  1.0000
  O   O20       1.0  0.27305  0.25429  0.39593  1.0000
  O   O21       1.0  0.60638  0.58763  0.72926  1.0000
  Cu  Cu1       1.0  0.93565  0.81980  0.07402  1.0000
  Cu  Cu2       1.0  0.26898  0.15314  0.40736  1.0000
  Cu  Cu3       1.0  0.60232  0.48647  0.74069  1.0000
  Cu  Cu4       1.0  0.93565  0.81983  0.92598  1.0000
  Cu  Cu5       1.0  0.26898  0.15316  0.25931  1.0000
  Cu  Cu6       1.0  0.60231  0.48649  0.59264  1.0000
  O   O22       1.0  0.86527  0.81352  0.06260  1.0000
  O   O23       1.0  0.19861  0.14685  0.39594  1.0000
  O   O24       1.0  0.53194  0.48019  0.72927  1.0000
  C   C1        1.0  0.93184  0.69278  0.00000  1.0000
  C   C2        1.0  0.26517  0.02612  0.33333  1.0000
  C   C3        1.0  0.59851  0.35945  0.66667  1.0000
  C   C4        1.0  0.93263  0.61569  0.00000  1.0000
  C   C5        1.0  0.26596  0.94902  0.33334  1.0000
  C   C6        1.0  0.59929  0.28235  0.66667  1.0000
  C   C7        1.0  0.89425  0.05140  0.00001  1.0000
  C   C8        1.0  0.22758  0.38474  0.33334  1.0000
  C   C9        1.0  0.56092  0.71807  0.66667  1.0000
  C   C10       1.0  0.89351  0.12385  0.00000  1.0000
  C   C11       1.0  0.22684  0.45718  0.33334  1.0000
  C   C12       1.0  0.56017  0.79051  0.66667  1.0000
  C   C13       1.0  0.93719  0.16883  1.00000  1.0000
  C   C14       1.0  0.27052  0.50216  0.33333  1.0000
  C   C15       1.0  0.60386  0.83549  0.66666  1.0000
  C   C16       1.0  0.98162  0.14136  0.99998  1.0000
  C   C17       1.0  0.31495  0.47469  0.33331  1.0000
  C   C18       1.0  0.64828  0.80802  0.66664  1.0000
  C   C19       1.0  0.98236  0.06892  0.99997  1.0000
  C   C20       1.0  0.31569  0.40225  0.33331  1.0000
  C   C21       1.0  0.64902  0.73558  0.66664  1.0000
  C   C22       1.0  0.96977  0.29029  0.04385  1.0000
  C   C23       1.0  0.30310  0.62363  0.37719  1.0000
  C   C24       1.0  0.63644  0.95696  0.71052  1.0000
  C   C25       1.0  0.96903  0.36273  0.04386  1.0000
  C   C26       1.0  0.30236  0.69607  0.37720  1.0000
  C   C27       1.0  0.63569  0.02940  0.71053  1.0000
  C   C28       1.0  0.93491  0.39226  0.00001  1.0000
  C   C29       1.0  0.26824  0.72559  0.33334  1.0000
  C   C30       1.0  0.60158  0.05892  0.66667  1.0000
  C   C31       1.0  0.90153  0.34933  0.95615  1.0000
  C   C32       1.0  0.23486  0.68267  0.28948  1.0000
  C   C33       1.0  0.56819  0.01600  0.62282  1.0000
  C   C34       1.0  0.90226  0.27689  0.95615  1.0000
  C   C35       1.0  0.23560  0.61023  0.28948  1.0000
  C   C36       1.0  0.56893  0.94356  0.62281  1.0000
  C   C37       1.0  0.93639  0.24738  0.00000  1.0000
  C   C38       1.0  0.26973  0.58071  0.33333  1.0000
  C   C39       1.0  0.60306  0.91404  0.66667  1.0000
  C   C40       1.0  0.88968  0.49827  0.00002  1.0000
  C   C41       1.0  0.22301  0.83160  0.33335  1.0000
  C   C42       1.0  0.55635  0.16493  0.66668  1.0000
  C   C43       1.0  0.88894  0.57071  0.00001  1.0000
  C   C44       1.0  0.22228  0.90404  0.33334  1.0000
  C   C45       1.0  0.55561  0.23738  0.66667  1.0000
  C   C46       1.0  0.97705  0.58822  0.99999  1.0000
  C   C47       1.0  0.31038  0.92155  0.33332  1.0000
  C   C48       1.0  0.64372  0.25489  0.66666  1.0000
  C   C49       1.0  0.97779  0.51578  0.99999  1.0000
  C   C50       1.0  0.31112  0.84911  0.33332  1.0000
  C   C51       1.0  0.64446  0.18244  0.66666  1.0000
  C   C52       1.0  0.93410  0.47080  0.00001  1.0000
  C   C53       1.0  0.26744  0.80414  0.33334  1.0000
  C   C54       1.0  0.60077  0.13747  0.66667  1.0000
  C   C55       1.0  0.84726  0.81380  0.00001  1.0000
  C   C56       1.0  0.18060  0.14713  0.33335  1.0000
  C   C57       1.0  0.51393  0.48046  0.66668  1.0000
  C   C58       1.0  0.79361  0.81459  0.00002  1.0000
  C   C59       1.0  0.12694  0.14792  0.33335  1.0000
  C   C60       1.0  0.46027  0.48126  0.66669  1.0000
  C   C61       1.0  0.45496  0.75610  0.99998  1.0000
  C   C62       1.0  0.78830  0.08943  0.33332  1.0000
  C   C63       1.0  0.12163  0.42277  0.66665  1.0000
  C   C64       1.0  0.25330  0.75905  0.99997  1.0000
  C   C65       1.0  0.58663  0.09238  0.33331  1.0000
  C   C66       1.0  0.91996  0.42571  0.66664  1.0000
  O   O25       1.0  0.22220  0.70556  0.99994  1.0000
  O   O26       1.0  0.55554  0.03890  0.33328  1.0000
  O   O27       1.0  0.88887  0.37223  0.66661  1.0000
  N   N1        1.0  0.23398  0.82275  0.99997  1.0000
  N   N2        1.0  0.56732  0.15609  0.33331  1.0000
  N   N3        1.0  0.90065  0.48942  0.66664  1.0000
  C   C67       1.0  0.26509  0.88573  0.99997  1.0000
  C   C68       1.0  0.59842  0.21906  0.33331  1.0000
  C   C69       1.0  0.93175  0.55240  0.66664  1.0000
  O   O28       1.0  0.24403  0.93998  0.99996  1.0000
  O   O29       1.0  0.57736  0.27332  0.33330  1.0000
  O   O30       1.0  0.91070  0.60665  0.66663  1.0000
  C   C70       1.0  0.46676  0.88278  0.99998  1.0000
  C   C71       1.0  0.80009  0.21611  0.33331  1.0000
  C   C72       1.0  0.13342  0.54945  0.66664  1.0000
  C   C73       1.0  0.48607  0.81907  0.99998  1.0000
  C   C74       1.0  0.81940  0.15240  0.33332  1.0000
  C   C75       1.0  0.15273  0.48574  0.66665  1.0000
  C   C76       1.0  0.47428  0.69239  0.99999  1.0000
  C   C77       1.0  0.80761  0.02573  0.33332  1.0000
  C   C78       1.0  0.14094  0.35906  0.66666  1.0000
  C   C79       1.0  0.52469  0.69166  1.00000  1.0000
  C   C80       1.0  0.85803  0.02499  0.33333  1.0000
  C   C81       1.0  0.19136  0.35833  0.66666  1.0000
  C   C82       1.0  0.55579  0.75463  1.00000  1.0000
  C   C83       1.0  0.88913  0.08796  0.33333  1.0000
  C   C84       1.0  0.22246  0.42129  0.66666  1.0000
  C   C85       1.0  0.53648  0.81833  0.99999  1.0000
  C   C86       1.0  0.86981  0.15167  0.33332  1.0000
  C   C87       1.0  0.20315  0.48500  0.66666  1.0000
  C   C88       1.0  0.49786  0.94575  0.99997  1.0000
  C   C89       1.0  0.83119  0.27909  0.33330  1.0000
  C   C90       1.0  0.16453  0.61242  0.66663  1.0000
  C   C91       1.0  0.54828  0.94501  0.99997  1.0000
  C   C92       1.0  0.88161  0.27835  0.33330  1.0000
  C   C93       1.0  0.21494  0.61168  0.66663  1.0000
  C   C94       1.0  0.56759  0.88130  0.99997  1.0000
  C   C95       1.0  0.90092  0.21463  0.33331  1.0000
  C   C96       1.0  0.23426  0.54797  0.66664  1.0000
  C   C97       1.0  0.61800  0.88057  1.00000  1.0000
  C   C98       1.0  0.95133  0.21390  0.33333  1.0000
  C   C99       1.0  0.28466  0.54723  0.66666  1.0000
  N   N4        1.0  0.63731  0.81686  1.00000  1.0000
  N   N5        1.0  0.97065  0.15019  0.33333  1.0000
  N   N6        1.0  0.30398  0.48353  0.66666  1.0000
  C   C100      1.0  0.60621  0.75389  1.00000  1.0000
  C   C101      1.0  0.93954  0.08722  0.33333  1.0000
  C   C102      1.0  0.27288  0.42056  0.66666  1.0000
  C   C103      1.0  0.15921  0.88727  0.99997  1.0000
  C   C104      1.0  0.49254  0.22061  0.33331  1.0000
  C   C105      1.0  0.82588  0.55394  0.66664  1.0000
  C   C106      1.0  0.10879  0.88801  0.99997  1.0000
  C   C107      1.0  0.44212  0.22134  0.33331  1.0000
  C   C108      1.0  0.77546  0.55468  0.66664  1.0000
  C   C109      1.0  0.09701  0.76133  0.99997  1.0000
  C   C110      1.0  0.43034  0.09466  0.33331  1.0000
  C   C111      1.0  0.76367  0.42799  0.66664  1.0000
  C   C112      1.0  0.14742  0.76059  0.99998  1.0000
  C   C113      1.0  0.48076  0.09392  0.33331  1.0000
  C   C114      1.0  0.81409  0.42726  0.66665  1.0000
  C   C115      1.0  0.17852  0.82356  0.99997  1.0000
  C   C116      1.0  0.51186  0.15690  0.33331  1.0000
  C   C117      1.0  0.84519  0.49023  0.66664  1.0000
  C   C118      1.0  0.71208  0.75235  0.00001  1.0000
  C   C119      1.0  0.04542  0.08568  0.33334  1.0000
  C   C120      1.0  0.37875  0.41902  0.66668  1.0000
  C   C121      1.0  0.76250  0.75162  0.00002  1.0000
  C   C122      1.0  0.09584  0.08495  0.33335  1.0000
  C   C123      1.0  0.42917  0.41829  0.66669  1.0000
  C   C124      1.0  0.77429  0.87830  0.00001  1.0000
  C   C125      1.0  0.10762  0.21163  0.33335  1.0000
  C   C126      1.0  0.44095  0.54497  0.66668  1.0000
  C   C127      1.0  0.72387  0.87903  0.00001  1.0000
  C   C128      1.0  0.05720  0.21236  0.33334  1.0000
  C   C129      1.0  0.39054  0.54570  0.66668  1.0000
  C   C130      1.0  0.69277  0.81605  0.00001  1.0000
  C   C131      1.0  0.02610  0.14938  0.33334  1.0000
  C   C132      1.0  0.35944  0.48272  0.66667  1.0000
  O   O31       1.0  0.64912  0.93402  0.00002  1.0000
  O   O32       1.0  0.98245  0.26736  0.33335  1.0000
  O   O33       1.0  0.31579  0.60069  0.66669  1.0000
  O   O34       1.0  0.62728  0.69964  0.99999  1.0000
  O   O35       1.0  0.96061  0.03298  0.33332  1.0000
  O   O36       1.0  0.29394  0.36631  0.66665  1.0000
  C   C133      1.0  0.40455  0.75684  0.99998  1.0000
  C   C134      1.0  0.73789  0.09017  0.33331  1.0000
  C   C135      1.0  0.07122  0.42350  0.66664  1.0000
  C   C136      1.0  0.38524  0.82054  0.99997  1.0000
  C   C137      1.0  0.71857  0.15388  0.33330  1.0000
  C   C138      1.0  0.05191  0.48721  0.66664  1.0000
  C   C139      1.0  0.41634  0.88351  0.99997  1.0000
  C   C140      1.0  0.74967  0.21685  0.33330  1.0000
  C   C141      1.0  0.08301  0.55018  0.66664  1.0000
  C   C142      1.0  0.33482  0.82128  0.99997  1.0000
  C   C143      1.0  0.66816  0.15461  0.33330  1.0000
  C   C144      1.0  0.00149  0.48795  0.66664  1.0000
  C   C145      1.0  0.30372  0.75831  0.99997  1.0000
  C   C146      1.0  0.63705  0.09164  0.33330  1.0000
  C   C147      1.0  0.97039  0.42498  0.66664  1.0000
  C   C148      1.0  0.32304  0.69460  0.99997  1.0000
  C   C149      1.0  0.65637  0.02794  0.33330  1.0000
  C   C150      1.0  0.98970  0.36127  0.66664  1.0000
  C   C151      1.0  0.37345  0.69387  0.99998  1.0000
  C   C152      1.0  0.70678  0.02720  0.33331  1.0000
  C   C153      1.0  0.04012  0.36053  0.66664  1.0000
  C   C154      1.0  0.39702  0.94722  0.99997  1.0000
  C   C155      1.0  0.73036  0.28055  0.33330  1.0000
  C   C156      1.0  0.06369  0.61389  0.66664  1.0000
  C   C157      1.0  0.34661  0.94795  0.99996  1.0000
  C   C158      1.0  0.67994  0.28128  0.33330  1.0000
  C   C159      1.0  0.01328  0.61462  0.66663  1.0000
  C   C160      1.0  0.31551  0.88498  0.99997  1.0000
  C   C161      1.0  0.64884  0.21831  0.33330  1.0000
  C   C162      1.0  0.98218  0.55165  0.66663  1.0000
  C   C163      1.0  0.02403  0.82583  0.99999  1.0000
  C   C164      1.0  0.35737  0.15917  0.33332  1.0000
  C   C165      1.0  0.69070  0.49250  0.66665  1.0000
  C   C166      1.0  0.07769  0.82504  0.99997  1.0000
  C   C167      1.0  0.41102  0.15837  0.33331  1.0000
  C   C168      1.0  0.74436  0.49171  0.66664  1.0000
  C   C169      1.0  0.93945  0.94685  1.00000  1.0000
  C   C170      1.0  0.27279  0.28018  0.33333  1.0000
  C   C171      1.0  0.60612  0.61351  0.66666  1.0000
  C   C172      1.0  0.93867  0.02394  0.99999  1.0000
  C   C173      1.0  0.27200  0.35728  0.33332  1.0000
  C   C174      1.0  0.60534  0.69061  0.66666  1.0000
  N   N7        1.0  0.93565  0.81979  0.17815  1.0000
  N   N8        1.0  0.26899  0.15313  0.51149  1.0000
  N   N9        1.0  0.60232  0.48646  0.84482  1.0000
  N   N10       1.0  0.93565  0.81984  0.82184  1.0000
  N   N11       1.0  0.26898  0.15318  0.15518  1.0000
  N   N12       1.0  0.60231  0.48651  0.48851  1.0000
  C   C175      1.0  0.96860  0.86738  0.21754  1.0000
  C   C176      1.0  0.30194  0.20071  0.55087  1.0000
  C   C177      1.0  0.63527  0.53405  0.88420  1.0000
  C   C178      1.0  0.96860  0.86739  0.29634  1.0000
  C   C179      1.0  0.30194  0.20072  0.62967  1.0000
  C   C180      1.0  0.63527  0.53405  0.96301  1.0000
  C   C181      1.0  0.93565  0.81981  0.33576  1.0000
  C   C182      1.0  0.26898  0.15314  0.66909  1.0000
  C   C183      1.0  0.60232  0.48647  0.00242  1.0000
  C   C184      1.0  0.90270  0.77221  0.29636  1.0000
  C   C185      1.0  0.23603  0.10554  0.62970  1.0000
  C   C186      1.0  0.56937  0.43888  0.96303  1.0000
  C   C187      1.0  0.90270  0.77220  0.21756  1.0000
  C   C188      1.0  0.23603  0.10553  0.55090  1.0000
  C   C189      1.0  0.56937  0.43887  0.88423  1.0000
  C   C190      1.0  0.89161  0.81023  0.46060  1.0000
  C   C191      1.0  0.22494  0.14357  0.79393  1.0000
  C   C192      1.0  0.55827  0.47690  0.12727  1.0000
  C   C193      1.0  0.89160  0.81025  0.53940  1.0000
  C   C194      1.0  0.22494  0.14358  0.87273  1.0000
  C   C195      1.0  0.55827  0.47691  0.20606  1.0000
  C   C196      1.0  0.93564  0.81983  0.57880  1.0000
  C   C197      1.0  0.26898  0.15316  0.91213  1.0000
  C   C198      1.0  0.60231  0.48649  0.24547  1.0000
  C   C199      1.0  0.97969  0.82941  0.53940  1.0000
  C   C200      1.0  0.31302  0.16274  0.87273  1.0000
  C   C201      1.0  0.64635  0.49607  0.20606  1.0000
  C   C202      1.0  0.97969  0.82940  0.46060  1.0000
  C   C203      1.0  0.31302  0.16273  0.79393  1.0000
  C   C204      1.0  0.64636  0.49607  0.12726  1.0000
  C   C205      1.0  0.93564  0.81981  0.42120  1.0000
  C   C206      1.0  0.26898  0.15314  0.75453  1.0000
  C   C207      1.0  0.60231  0.48648  0.08787  1.0000
  C   C208      1.0  0.96860  0.86742  0.70363  1.0000
  C   C209      1.0  0.30193  0.20076  0.03696  1.0000
  C   C210      1.0  0.63526  0.53409  0.37030  1.0000
  C   C211      1.0  0.96860  0.86742  0.78243  1.0000
  C   C212      1.0  0.30193  0.20076  0.11577  1.0000
  C   C213      1.0  0.63527  0.53409  0.44910  1.0000
  C   C214      1.0  0.90269  0.77225  0.78246  1.0000
  C   C215      1.0  0.23602  0.10558  0.11579  1.0000
  C   C216      1.0  0.56936  0.43891  0.44912  1.0000
  C   C217      1.0  0.90269  0.77224  0.70366  1.0000
  C   C218      1.0  0.23603  0.10558  0.03699  1.0000
  C   C219      1.0  0.56936  0.43891  0.37032  1.0000
  C   C220      1.0  0.93565  0.81984  0.66425  1.0000
  C   C221      1.0  0.26898  0.15317  0.99758  1.0000
  C   C222      1.0  0.60231  0.48650  0.33091  1.0000
  H   H1        1.0  0.85733  0.14621  0.00002  1.0000
  H   H2        1.0  0.19067  0.47954  0.33336  1.0000
  H   H3        1.0  0.52400  0.81288  0.66669  1.0000
  Cl  Cl1       1.0  0.47359  0.02585  0.99994  1.0000
  Cl  Cl2       1.0  0.80693  0.35919  0.33327  1.0000
  Cl  Cl3       1.0  0.14026  0.69252  0.66661  1.0000
  Cl  Cl4       1.0  0.01269  0.25319  0.09895  1.0000
  Cl  Cl5       1.0  0.34602  0.58652  0.43228  1.0000
  Cl  Cl6       1.0  0.67936  0.91985  0.76562  1.0000
  H   H4        1.0  0.99543  0.90617  0.67154  1.0000
  H   H5        1.0  0.32876  0.23951  0.00487  1.0000
  H   H6        1.0  0.66210  0.57284  0.33821  1.0000
  Cl  Cl7       1.0  0.85863  0.38644  0.90102  1.0000
  Cl  Cl8       1.0  0.19196  0.71978  0.23435  1.0000
  Cl  Cl9       1.0  0.52529  0.05311  0.56769  1.0000
  Cl  Cl10      1.0  0.83309  0.60523  0.00002  1.0000
  Cl  Cl11      1.0  0.16643  0.93856  0.33335  1.0000
  Cl  Cl12      1.0  0.49976  0.27190  0.66669  1.0000
  Cl  Cl13      1.0  0.86126  0.71243  0.83200  1.0000
  Cl  Cl14      1.0  0.19460  0.04576  0.16534  1.0000
  Cl  Cl15      1.0  0.52793  0.37910  0.49867  1.0000
  H   H7        1.0  0.99621  0.39767  0.07958  1.0000
  H   H8        1.0  0.32954  0.73101  0.41291  1.0000
  H   H9        1.0  0.66287  0.06434  0.74625  1.0000
  Cl  Cl16      1.0  0.83476  0.44173  0.00003  1.0000
  Cl  Cl17      1.0  0.16810  0.77506  0.33337  1.0000
  Cl  Cl18      1.0  0.50143  0.10839  0.66670  1.0000
  Cl  Cl19      1.0  0.03197  0.64476  0.99997  1.0000
  Cl  Cl20      1.0  0.36530  0.97809  0.33331  1.0000
  Cl  Cl21      1.0  0.69863  0.31143  0.66664  1.0000
  H   H10       1.0  0.77822  0.69974  0.00003  1.0000
  H   H11       1.0  0.11156  0.03307  0.33336  1.0000
  H   H12       1.0  0.44489  0.36640  0.66670  1.0000
  H   H13       1.0  0.33089  0.99984  0.99996  1.0000
  H   H14       1.0  0.66423  0.33317  0.33330  1.0000
  H   H15       1.0  0.99756  0.66650  0.66663  1.0000
  H   H16       1.0  0.68677  0.70106  0.00001  1.0000
  H   H17       1.0  0.02010  0.03440  0.33334  1.0000
  H   H18       1.0  0.35343  0.36773  0.66667  1.0000
  Cl  Cl22      1.0  0.54896  0.61156  1.00000  1.0000
  Cl  Cl23      1.0  0.88230  0.94489  0.33333  1.0000
  Cl  Cl24      1.0  0.21563  0.27823  0.66666  1.0000
  H   H19       1.0  0.01718  0.17798  0.99997  1.0000
  H   H20       1.0  0.35052  0.51132  0.33330  1.0000
  H   H21       1.0  0.68385  0.84465  0.66664  1.0000
  Cl  Cl25      1.0  0.01003  0.92722  0.34585  1.0000
  Cl  Cl26      1.0  0.34336  0.26055  0.67919  1.0000
  Cl  Cl27      1.0  0.67670  0.59388  0.01252  1.0000
  H   H22       1.0  0.87508  0.24195  0.92044  1.0000
  H   H23       1.0  0.20842  0.57528  0.25377  1.0000
  H   H24       1.0  0.54175  0.90861  0.58710  1.0000
  H   H25       1.0  0.01555  0.83721  0.57148  1.0000
  H   H26       1.0  0.34888  0.17054  0.90481  1.0000
  H   H27       1.0  0.68222  0.50388  0.23814  1.0000
  H   H28       1.0  0.01396  0.49342  0.99998  1.0000
  H   H29       1.0  0.34730  0.82675  0.33332  1.0000
  H   H30       1.0  0.68063  0.16009  0.66665  1.0000
  H   H31       1.0  0.99543  0.90617  0.81450  1.0000
  H   H32       1.0  0.32877  0.23951  0.14783  1.0000
  H   H33       1.0  0.66210  0.57284  0.48117  1.0000
  H   H34       1.0  0.87586  0.73350  0.67159  1.0000
  H   H35       1.0  0.20919  0.06683  0.00492  1.0000
  H   H36       1.0  0.54253  0.40016  0.33825  1.0000
  H   H37       1.0  0.01853  0.04656  0.99996  1.0000
  H   H38       1.0  0.35186  0.37989  0.33329  1.0000
  H   H39       1.0  0.68520  0.71323  0.66663  1.0000
  H   H40       1.0  0.87587  0.73347  0.32846  1.0000
  H   H41       1.0  0.20920  0.06680  0.66180  1.0000
  H   H42       1.0  0.54253  0.40013  0.99513  1.0000
  H   H43       1.0  0.07167  0.71005  0.99998  1.0000
  H   H44       1.0  0.40501  0.04339  0.33331  1.0000
  H   H45       1.0  0.73834  0.37672  0.66664  1.0000
  H   H46       1.0  0.44896  0.64111  0.99999  1.0000
  H   H47       1.0  0.78229  0.97445  0.33332  1.0000
  H   H48       1.0  0.11563  0.30778  0.66666  1.0000
  H   H49       1.0  0.01555  0.83720  0.42852  1.0000
  H   H50       1.0  0.34889  0.17053  0.76185  1.0000
  H   H51       1.0  0.68222  0.50387  0.09518  1.0000
  H   H52       1.0  0.85574  0.80242  0.42852  1.0000
  H   H53       1.0  0.18907  0.13575  0.76186  1.0000
  H   H54       1.0  0.52241  0.46909  0.09519  1.0000
  H   H55       1.0  0.16314  0.70871  0.99999  1.0000
  H   H56       1.0  0.49648  0.04205  0.33332  1.0000
  H   H57       1.0  0.82981  0.37538  0.66665  1.0000
  H   H58       1.0  0.09307  0.93989  0.99998  1.0000
  H   H59       1.0  0.42641  0.27322  0.33331  1.0000
  H   H60       1.0  0.75974  0.60656  0.66664  1.0000
  Cl  Cl28      1.0  0.43612  0.02639  0.99997  1.0000
  Cl  Cl29      1.0  0.76945  0.35972  0.33331  1.0000
  Cl  Cl30      1.0  0.10278  0.69306  0.66664  1.0000
  H   H61       1.0  0.18453  0.93856  0.99997  1.0000
  H   H62       1.0  0.51786  0.27189  0.33330  1.0000
  H   H63       1.0  0.85119  0.60522  0.66663  1.0000
  Cl  Cl31      1.0  0.83933  0.99487  0.00002  1.0000
  Cl  Cl32      1.0  0.17266  0.32820  0.33335  1.0000
  Cl  Cl33      1.0  0.50600  0.66154  0.66668  1.0000
  H   H64       1.0  0.57360  0.99630  0.99996  1.0000
  H   H65       1.0  0.90693  0.32963  0.33329  1.0000
  H   H66       1.0  0.24027  0.66296  0.66662  1.0000
  H   H67       1.0  0.85574  0.80245  0.57148  1.0000
  H   H68       1.0  0.18907  0.13578  0.90481  1.0000
  H   H69       1.0  0.52241  0.46911  0.23814  1.0000
  H   H70       1.0  0.70815  0.93091  0.00001  1.0000
  H   H71       1.0  0.04148  0.26424  0.33335  1.0000
  H   H72       1.0  0.37481  0.59758  0.66668  1.0000
  Cl  Cl34      1.0  0.01003  0.92721  0.16799  1.0000
  Cl  Cl35      1.0  0.34336  0.26054  0.50133  1.0000
  Cl  Cl36      1.0  0.67670  0.59387  0.83466  1.0000
  H   H73       1.0  0.79962  0.92957  0.00002  1.0000
  H   H74       1.0  0.13295  0.26290  0.33335  1.0000
  H   H75       1.0  0.46628  0.59624  0.66668  1.0000
  H   H76       1.0  0.38917  0.64199  0.99999  1.0000
  H   H77       1.0  0.72250  0.97532  0.33332  1.0000
  H   H78       1.0  0.05584  0.30865  0.66665  1.0000
  Cl  Cl37      1.0  0.86128  0.71237  0.16805  1.0000
  Cl  Cl38      1.0  0.19461  0.04571  0.50139  1.0000
  Cl  Cl39      1.0  0.52794  0.37904  0.83472  1.0000
  H   H79       1.0  0.29770  0.64333  0.99998  1.0000
  H   H80       1.0  0.63104  0.97666  0.33331  1.0000
  H   H81       1.0  0.96437  0.31000  0.66664  1.0000
