data_image0
_chemical_formula_structural       O7Zn2OC16N2C8HOCH7OCH4OCH3OCH3
_chemical_formula_sum              "O12 Zn2 C28 N2 H18"
_cell_length_a       16.1093
_cell_length_b       8.59723
_cell_length_c       15.1862
_cell_angle_alpha    82.296
_cell_angle_beta     89.9973
_cell_angle_gamma    84.4031

_space_group_name_H-M_alt    "P 1"
_space_group_IT_number       1

loop_
  _space_group_symop_operation_xyz
  'x, y, z'

loop_
  _atom_site_type_symbol
  _atom_site_label
  _atom_site_symmetry_multiplicity
  _atom_site_fract_x
  _atom_site_fract_y
  _atom_site_fract_z
  _atom_site_occupancy
  O   O1        1.0  0.87588  0.91763  0.23125  1.0000
  O   O2        1.0  0.86636  0.37457  0.19657  1.0000
  O   O3        1.0  0.99205  0.13354  0.21486  1.0000
  O   O4        1.0  0.75019  0.15865  0.21296  1.0000
  O   O5        1.0  0.99205  0.13354  0.06841  1.0000
  O   O6        1.0  0.86637  0.37457  0.05011  1.0000
  O   O7        1.0  0.87588  0.91763  0.08479  1.0000
  Zn  Zn1       1.0  0.87113  0.14610  0.04420  1.0000
  Zn  Zn2       1.0  0.87112  0.14610  0.23716  1.0000
  O   O8        1.0  0.75020  0.15866  0.06650  1.0000
  C   C1        1.0  0.86739  0.43304  0.11891  1.0000
  C   C2        1.0  0.87045  0.60727  0.10569  1.0000
  C   C3        1.0  0.02303  0.13456  0.14156  1.0000
  C   C4        1.0  0.11535  0.13760  0.14133  1.0000
  C   C5        1.0  0.33650  0.00166  0.15168  1.0000
  C   C6        1.0  0.42324  0.00454  0.15148  1.0000
  C   C7        1.0  0.40574  0.29050  0.12977  1.0000
  C   C8        1.0  0.31900  0.28763  0.12998  1.0000
  C   C9        1.0  0.28438  0.14320  0.14093  1.0000
  C   C10       1.0  0.45787  0.14895  0.14052  1.0000
  C   C11       1.0  0.55192  0.15207  0.14030  1.0000
  C   C12       1.0  0.19032  0.14009  0.14116  1.0000
  C   C13       1.0  0.71921  0.15763  0.13983  1.0000
  C   C14       1.0  0.62689  0.15456  0.14012  1.0000
  C   C15       1.0  0.87486  0.85915  0.16245  1.0000
  C   C16       1.0  0.87181  0.68493  0.17567  1.0000
  N   N1        1.0  0.87112  0.14609  0.36885  1.0000
  N   N2        1.0  0.87113  0.14609  0.91251  1.0000
  C   C17       1.0  0.92666  0.03916  0.60269  1.0000
  C   C18       1.0  0.92666  0.03916  0.69488  1.0000
  C   C19       1.0  0.81559  0.25303  0.67866  1.0000
  C   C20       1.0  0.81558  0.25302  0.58647  1.0000
  C   C21       1.0  0.87112  0.14609  0.54849  1.0000
  C   C22       1.0  0.87113  0.14609  0.73287  1.0000
  C   C23       1.0  0.87113  0.14609  0.83283  1.0000
  C   C24       1.0  0.87112  0.14609  0.44853  1.0000
  H   H1        1.0  0.87063  0.61812  0.24569  1.0000
  O   O9        1.0  0.47379  0.86694  0.16204  1.0000
  C   C25       1.0  0.45792  0.77927  0.24455  1.0000
  H   H2        1.0  0.39244  0.81785  0.26691  1.0000
  H   H3        1.0  0.46295  0.64837  0.23743  1.0000
  H   H4        1.0  0.50551  0.80071  0.29605  1.0000
  H   H5        1.0  0.27656  0.40289  0.12123  1.0000
  H   H6        1.0  0.97188  0.95209  0.57177  1.0000
  H   H7        1.0  0.97188  0.95208  0.73901  1.0000
  H   H8        1.0  0.77037  0.34009  0.70960  1.0000
  O   O10       1.0  0.76160  0.35706  0.53394  1.0000
  C   C26       1.0  0.71257  0.45142  0.58723  1.0000
  H   H9        1.0  0.74668  0.45306  0.65282  1.0000
  H   H10       1.0  0.70107  0.57677  0.55108  1.0000
  H   H11       1.0  0.65031  0.40074  0.60089  1.0000
  H   H12       1.0  0.43394  0.40809  0.12086  1.0000
  O   O11       1.0  0.87200  0.68698  0.02217  1.0000
  C   C27       1.0  0.94546  0.76391  0.01163  1.0000
  H   H13       1.0  0.99479  0.70202  0.06160  1.0000
  H   H14       1.0  0.96961  0.75996  0.94132  1.0000
  H   H15       1.0  0.93140  0.89195  0.02346  1.0000
  O   O12       1.0  0.30277  0.86147  0.16244  1.0000
  C   C28       1.0  0.25313  0.85125  0.23907  1.0000
  H   H16       1.0  0.23253  0.97496  0.25496  1.0000
  H   H17       1.0  0.19584  0.78871  0.22676  1.0000
  H   H18       1.0  0.29087  0.78181  0.29746  1.0000
