data_image0
_chemical_formula_structural       O7Cu2OC12N2C12N2C10N2H9OC2H7OC2H6OC2H5OC2H6OC2H5OC2H5OC2H5OC2H5OC2H7OC2H8
_chemical_formula_sum              "O18 Cu2 C54 N6 H68"
_cell_length_a       10.5405
_cell_length_b       16.9748
_cell_length_c       15.4553
_cell_angle_alpha    90.9739
_cell_angle_beta     87.3088
_cell_angle_gamma    96.0495

_space_group_name_H-M_alt    "P 1"
_space_group_IT_number       1

loop_
  _space_group_symop_operation_xyz
  'x, y, z'

loop_
  _atom_site_type_symbol
  _atom_site_label
  _atom_site_symmetry_multiplicity
  _atom_site_fract_x
  _atom_site_fract_y
  _atom_site_fract_z
  _atom_site_occupancy
  O   O1        1.0  0.83818  0.04998  0.00160  1.0000
  O   O2        1.0  0.81880  0.82065  0.98550  1.0000
  O   O3        1.0  0.01325  0.94056  0.99392  1.0000
  O   O4        1.0  0.64372  0.93007  0.99317  1.0000
  O   O5        1.0  0.00218  0.93370  0.13770  1.0000
  O   O6        1.0  0.80772  0.81379  0.12928  1.0000
  O   O7        1.0  0.82711  0.04312  0.14538  1.0000
  Cu  Cu1       1.0  0.81640  0.92783  0.15046  1.0000
  Cu  Cu2       1.0  0.82950  0.93594  0.98042  1.0000
  O   O8        1.0  0.63265  0.92321  0.13695  1.0000
  C   C1        1.0  0.81420  0.78786  0.05532  1.0000
  C   C2        1.0  0.81702  0.70036  0.04918  1.0000
  C   C3        1.0  0.81231  0.65552  0.12467  1.0000
  C   C4        1.0  0.81497  0.57331  0.11890  1.0000
  C   C5        1.0  0.82234  0.53594  0.03764  1.0000
  C   C6        1.0  0.82706  0.58078  0.96214  1.0000
  C   C7        1.0  0.82440  0.66299  0.96791  1.0000
  C   C8        1.0  0.83094  0.29046  0.01197  1.0000
  C   C9        1.0  0.83360  0.20825  0.00620  1.0000
  C   C10       1.0  0.82152  0.20078  0.16296  1.0000
  C   C11       1.0  0.81885  0.28299  0.16872  1.0000
  C   C12       1.0  0.82358  0.32783  0.09323  1.0000
  N   N1        1.0  0.82506  0.45190  0.03173  1.0000
  N   N2        1.0  0.82086  0.41186  0.09913  1.0000
  C   C13       1.0  0.59089  0.92742  0.06512  1.0000
  C   C14       1.0  0.44997  0.92976  0.06527  1.0000
  C   C15       1.0  0.23157  0.84645  0.05976  1.0000
  C   C16       1.0  0.37816  0.84397  0.05925  1.0000
  C   C17       1.0  0.41200  0.97759  0.98626  1.0000
  C   C18       1.0  0.26526  0.97948  0.98634  1.0000
  C   C19       1.0  0.25292  0.97347  0.14997  1.0000
  C   C20       1.0  0.39913  0.96935  0.15075  1.0000
  C   C21       1.0  0.05501  0.93635  0.06576  1.0000
  C   C22       1.0  0.19594  0.93401  0.06559  1.0000
  C   C23       1.0  0.83170  0.07591  0.07555  1.0000
  C   C24       1.0  0.82889  0.16341  0.08169  1.0000
  N   N3        1.0  0.80719  0.92213  0.27005  1.0000
  N   N4        1.0  0.83872  0.94164  0.86082  1.0000
  C   C25       1.0  0.88978  0.97309  0.31903  1.0000
  C   C26       1.0  0.88280  0.96879  0.40953  1.0000
  C   C27       1.0  0.79323  0.91353  0.45106  1.0000
  C   C28       1.0  0.71064  0.86257  0.40208  1.0000
  C   C29       1.0  0.71763  0.86687  0.31157  1.0000
  C   C30       1.0  0.76312  0.89498  0.72134  1.0000
  C   C31       1.0  0.75614  0.89068  0.81185  1.0000
  C   C32       1.0  0.92829  0.99690  0.81930  1.0000
  C   C33       1.0  0.93527  0.00120  0.72879  1.0000
  C   C34       1.0  0.85268  0.95023  0.67982  1.0000
  N   N5        1.0  0.78609  0.90913  0.54357  1.0000
  N   N6        1.0  0.85983  0.95463  0.58731  1.0000
  H   H1        1.0  0.40260  0.80679  0.11569  1.0000
  H   H2        1.0  0.68320  0.84568  0.84566  1.0000
  H   H3        1.0  0.83479  0.32696  0.95049  1.0000
  H   H4        1.0  0.65038  0.82537  0.27170  1.0000
  H   H5        1.0  0.69587  0.85348  0.68147  1.0000
  H   H6        1.0  0.46032  0.04090  0.98764  1.0000
  H   H7        1.0  0.82823  0.69950  0.90644  1.0000
  H   H8        1.0  0.99553  0.03840  0.85918  1.0000
  H   H9        1.0  0.83306  0.55035  0.89597  1.0000
  O   O9        1.0  0.62368  0.80896  0.44255  1.0000
  C   C35       1.0  0.53666  0.75523  0.57868  1.0000
  C   C36       1.0  0.63520  0.81599  0.53295  1.0000
  H   H10       1.0  0.54596  0.76089  0.65177  1.0000
  H   H11       1.0  0.43629  0.76691  0.56169  1.0000
  H   H12       1.0  0.55485  0.69288  0.55641  1.0000
  H   H13       1.0  0.61713  0.87837  0.55519  1.0000
  H   H14       1.0  0.73555  0.80425  0.54994  1.0000
  H   H15       1.0  0.18471  0.81021  0.11630  1.0000
  H   H16       1.0  0.96271  0.01809  0.28522  1.0000
  O   O10       1.0  0.96306  0.01838  0.45698  1.0000
  C   C37       1.0  0.13457  0.12418  0.45482  1.0000
  C   C38       1.0  0.04373  0.06807  0.40098  1.0000
  H   H17       1.0  0.19983  0.16435  0.40956  1.0000
  H   H18       1.0  0.07637  0.16188  0.49993  1.0000
  H   H19       1.0  0.19482  0.08779  0.49482  1.0000
  H   H20       1.0  0.98346  0.10439  0.36093  1.0000
  H   H21       1.0  0.10201  0.03036  0.35592  1.0000
  H   H22       1.0  0.44721  0.95001  0.92301  1.0000
  O   O11       1.0  0.18441  0.81018  0.98716  1.0000
  C   C39       1.0  0.99714  0.76831  0.90783  1.0000
  C   C40       1.0  0.05038  0.80940  0.99009  1.0000
  H   H23       1.0  0.88877  0.76765  0.91018  1.0000
  H   H24       1.0  0.03970  0.80193  0.84826  1.0000
  H   H25       1.0  0.02355  0.70488  0.90419  1.0000
  H   H26       1.0  0.02399  0.87283  0.99382  1.0000
  H   H27       1.0  0.00783  0.77572  0.04962  1.0000
  O   O12       1.0  0.80521  0.69170  0.20368  1.0000
  C   C41       1.0  0.79344  0.67560  0.35855  1.0000
  C   C42       1.0  0.80151  0.63453  0.26913  1.0000
  H   H28       1.0  0.79042  0.62940  0.41149  1.0000
  H   H29       1.0  0.88067  0.72060  0.36570  1.0000
  H   H30       1.0  0.70317  0.70720  0.36465  1.0000
  H   H31       1.0  0.89173  0.60288  0.26296  1.0000
  H   H32       1.0  0.71422  0.58957  0.26201  1.0000
  H   H33       1.0  0.00820  0.04619  0.69498  1.0000
  O   O13       1.0  0.19644  0.93758  0.22200  1.0000
  C   C43       1.0  0.22545  0.86517  0.35112  1.0000
  C   C44       1.0  0.28957  0.90581  0.26959  1.0000
  H   H34       1.0  0.30071  0.83946  0.38961  1.0000
  H   H35       1.0  0.17732  0.91040  0.39297  1.0000
  H   H36       1.0  0.15082  0.81549  0.33111  1.0000
  H   H37       1.0  0.36426  0.95548  0.28953  1.0000
  H   H38       1.0  0.33761  0.86053  0.22777  1.0000
  O   O14       1.0  0.81024  0.52965  0.19216  1.0000
  C   C45       1.0  0.69636  0.42419  0.27605  1.0000
  C   C46       1.0  0.70156  0.47356  0.19303  1.0000
  H   H39       1.0  0.60848  0.37884  0.27679  1.0000
  H   H40       1.0  0.78600  0.39219  0.27775  1.0000
  H   H41       1.0  0.69070  0.46504  0.33511  1.0000
  H   H42       1.0  0.70718  0.43277  0.13392  1.0000
  H   H43       1.0  0.61192  0.50558  0.19142  1.0000
  O   O15       1.0  0.81193  0.31927  0.24768  1.0000
  C   C47       1.0  0.91062  0.34631  0.38404  1.0000
  C   C48       1.0  0.91864  0.30521  0.29464  1.0000
  H   H44       1.0  0.99687  0.33494  0.42204  1.0000
  H   H45       1.0  0.90960  0.41278  0.37526  1.0000
  H   H46       1.0  0.81937  0.32159  0.42104  1.0000
  H   H47       1.0  0.00988  0.32987  0.25759  1.0000
  H   H48       1.0  0.91959  0.23874  0.30348  1.0000
  O   O16       1.0  0.84081  0.17207  0.92719  1.0000
  C   C49       1.0  0.85241  0.18814  0.77232  1.0000
  C   C50       1.0  0.84429  0.22922  0.86173  1.0000
  H   H49       1.0  0.85520  0.23432  0.71937  1.0000
  H   H50       1.0  0.94273  0.15658  0.76611  1.0000
  H   H51       1.0  0.76521  0.14310  0.76527  1.0000
  H   H52       1.0  0.93143  0.27429  0.86884  1.0000
  H   H53       1.0  0.75392  0.26073  0.86790  1.0000
  O   O17       1.0  0.81672  0.15724  0.23631  1.0000
  C   C51       1.0  0.69739  0.11742  0.36797  1.0000
  C   C52       1.0  0.70264  0.16674  0.28491  1.0000
  H   H54       1.0  0.60518  0.12510  0.40730  1.0000
  H   H55       1.0  0.70047  0.05222  0.34994  1.0000
  H   H56       1.0  0.78269  0.13846  0.40819  1.0000
  H   H57       1.0  0.61736  0.14577  0.24466  1.0000
  H   H58       1.0  0.69962  0.23193  0.30301  1.0000
  H   H59       1.0  0.44851  0.03175  0.16011  1.0000
  H   H60       1.0  0.41071  0.81222  0.99787  1.0000
  O   O18       1.0  0.22722  0.05026  0.15619  1.0000
  C   C53       1.0  0.12509  0.14863  0.24020  1.0000
  C   C54       1.0  0.15413  0.06164  0.23329  1.0000
  H   H61       1.0  0.06597  0.15785  0.30252  1.0000
  H   H62       1.0  0.21849  0.18910  0.24092  1.0000
  H   H63       1.0  0.06922  0.16331  0.18223  1.0000
  H   H64       1.0  0.20997  0.04689  0.29124  1.0000
  H   H65       1.0  0.06068  0.02122  0.23253  1.0000
  H   H66       1.0  0.22943  0.95239  0.92286  1.0000
  H   H67       1.0  0.24326  0.04383  0.98711  1.0000
  H   H68       1.0  0.42273  0.93450  0.20924  1.0000
