data_image0
_chemical_formula_structural       O7Cu2OC2NC8NC2H2
_chemical_formula_sum              "O8 Cu2 C12 N2 H2"
_cell_length_a       9.06522
_cell_length_b       12.5036
_cell_length_c       9.06522
_cell_angle_alpha    86.4227
_cell_angle_beta     94.9847
_cell_angle_gamma    86.4302

_space_group_name_H-M_alt    "P 1"
_space_group_IT_number       1

loop_
  _space_group_symop_operation_xyz
  'x, y, z'

loop_
  _atom_site_type_symbol
  _atom_site_label
  _atom_site_symmetry_multiplicity
  _atom_site_fract_x
  _atom_site_fract_y
  _atom_site_fract_z
  _atom_site_occupancy
  O   O1        1.0  0.03120  0.08930  0.20792  1.0000
  O   O2        1.0  0.46049  0.08930  0.22567  1.0000
  O   O3        1.0  0.23697  0.08930  0.00215  1.0000
  O   O4        1.0  0.25472  0.08930  0.43143  1.0000
  O   O5        1.0  0.25378  0.91066  0.01899  1.0000
  O   O6        1.0  0.47730  0.91066  0.24250  1.0000
  O   O7        1.0  0.04801  0.91066  0.22476  1.0000
  Cu  Cu1       1.0  0.26419  0.89435  0.23517  1.0000
  Cu  Cu2       1.0  0.24431  0.10561  0.21526  1.0000
  O   O8        1.0  0.27153  0.91066  0.44827  1.0000
  C   C1        1.0  0.52388  0.99998  0.23238  1.0000
  C   C2        1.0  0.68772  0.99999  0.22728  1.0000
  N   N1        1.0  0.27816  0.74576  0.24917  1.0000
  C   C3        1.0  0.29871  0.52664  0.26979  1.0000
  C   C4        1.0  0.20978  0.47331  0.18063  1.0000
  C   C5        1.0  0.22122  0.35139  0.19210  1.0000
  C   C6        1.0  0.28728  0.64857  0.25832  1.0000
  C   C7        1.0  0.98462  0.99998  0.21804  1.0000
  C   C8        1.0  0.82078  0.99999  0.22314  1.0000
  C   C9        1.0  0.24708  0.99998  0.95558  1.0000
  C   C10       1.0  0.25218  0.99998  0.79174  1.0000
  N   N2        1.0  0.23033  0.25420  0.20124  1.0000
  C   C11       1.0  0.26142  0.99998  0.49484  1.0000
  C   C12       1.0  0.25632  0.99998  0.65868  1.0000
  H   H1        1.0  0.12506  0.51922  0.09569  1.0000
  H   H2        1.0  0.38343  0.48074  0.35473  1.0000
