data_image0
_chemical_formula_structural       O7Cu2OC30NC8NH2Br3HBrHBr2H2Br2HBr3H2
_chemical_formula_sum              "O8 Cu2 C38 N2 H9 Br11"
_cell_length_a       12.8114
_cell_length_b       14.8536
_cell_length_c       11.2955
_cell_angle_alpha    94.1025
_cell_angle_beta     80.4603
_cell_angle_gamma    83.8431

_space_group_name_H-M_alt    "P 1"
_space_group_IT_number       1

loop_
  _space_group_symop_operation_xyz
  'x, y, z'

loop_
  _atom_site_type_symbol
  _atom_site_label
  _atom_site_symmetry_multiplicity
  _atom_site_fract_x
  _atom_site_fract_y
  _atom_site_fract_z
  _atom_site_occupancy
  O   O1        1.0  0.41078  0.10611  0.74864  1.0000
  O   O2        1.0  0.10284  0.12134  0.78189  1.0000
  O   O3        1.0  0.26503  0.98247  0.76438  1.0000
  O   O4        1.0  0.24859  0.24499  0.76615  1.0000
  O   O5        1.0  0.25079  0.99465  0.96397  1.0000
  O   O6        1.0  0.08860  0.13352  0.98148  1.0000
  O   O7        1.0  0.39653  0.11829  0.94823  1.0000
  Cu  Cu1       1.0  0.24127  0.12702  0.98308  1.0000
  Cu  Cu2       1.0  0.25811  0.11261  0.74704  1.0000
  O   O8        1.0  0.23435  0.25717  0.96574  1.0000
  C   C1        1.0  0.05631  0.12695  0.88594  1.0000
  C   C2        1.0  0.93889  0.12551  0.89862  1.0000
  C   C3        1.0  0.25716  0.95497  0.86425  1.0000
  C   C4        1.0  0.25493  0.85490  0.86449  1.0000
  C   C5        1.0  0.73376  0.10953  0.70483  1.0000
  C   C6        1.0  0.62343  0.10817  0.71674  1.0000
  C   C7        1.0  0.60789  0.12144  0.93434  1.0000
  C   C8        1.0  0.71822  0.12280  0.92243  1.0000
  C   C9        1.0  0.78115  0.11684  0.80767  1.0000
  C   C10       1.0  0.89149  0.11819  0.79577  1.0000
  C   C11       1.0  0.87595  0.13147  0.01337  1.0000
  C   C12       1.0  0.76562  0.13011  0.02528  1.0000
  C   C13       1.0  0.26164  0.80125  0.75580  1.0000
  C   C14       1.0  0.24612  0.81451  0.97340  1.0000
  C   C15       1.0  0.24402  0.72049  0.97363  1.0000
  C   C16       1.0  0.25074  0.66683  0.86494  1.0000
  C   C17       1.0  0.25955  0.70721  0.75603  1.0000
  C   C18       1.0  0.23522  0.68010  0.08254  1.0000
  C   C19       1.0  0.23313  0.58607  0.08277  1.0000
  C   C20       1.0  0.23983  0.53242  0.97408  1.0000
  C   C21       1.0  0.24864  0.57280  0.86516  1.0000
  C   C22       1.0  0.25536  0.51915  0.75648  1.0000
  C   C23       1.0  0.26416  0.55953  0.64756  1.0000
  C   C24       1.0  0.26625  0.65356  0.64734  1.0000
  C   C25       1.0  0.23774  0.43839  0.97430  1.0000
  C   C26       1.0  0.25326  0.42511  0.75670  1.0000
  C   C27       1.0  0.44307  0.11268  0.84418  1.0000
  C   C28       1.0  0.56049  0.11413  0.83149  1.0000
  C   C29       1.0  0.24222  0.28466  0.86586  1.0000
  C   C30       1.0  0.24445  0.38474  0.86561  1.0000
  N   N1        1.0  0.22942  0.13715  0.14909  1.0000
  C   C31       1.0  0.35520  0.02951  0.38480  1.0000
  C   C32       1.0  0.34626  0.03718  0.51043  1.0000
  C   C33       1.0  0.20259  0.16013  0.52598  1.0000
  C   C34       1.0  0.21153  0.15247  0.40035  1.0000
  C   C35       1.0  0.28784  0.08716  0.32977  1.0000
  C   C36       1.0  0.29679  0.07950  0.20414  1.0000
  C   C37       1.0  0.15312  0.20245  0.21969  1.0000
  C   C38       1.0  0.14417  0.21012  0.34531  1.0000
  N   N2        1.0  0.26996  0.10248  0.58102  1.0000
  H   H1        1.0  0.94273  0.11334  0.70232  1.0000
  H   H2        1.0  0.55663  0.12630  0.02777  1.0000
  Br  Br1       1.0  0.45877  0.94089  0.28901  1.0000
  Br  Br2       1.0  0.68020  0.13820  0.18101  1.0000
  Br  Br3       1.0  0.06171  0.28070  0.14498  1.0000
  H   H3        1.0  0.40111  0.99023  0.55524  1.0000
  Br  Br4       1.0  0.09902  0.24875  0.62179  1.0000
  H   H4        1.0  0.78500  0.10467  0.61139  1.0000
  Br  Br5       1.0  0.22581  0.38359  0.12210  1.0000
  Br  Br6       1.0  0.55911  0.09826  0.57716  1.0000
  H   H5        1.0  0.91454  0.13742  0.09711  1.0000
  H   H6        1.0  0.08204  0.26329  0.40280  1.0000
  Br  Br7       1.0  0.26236  0.35231  0.60919  1.0000
  Br  Br8       1.0  0.27329  0.48670  0.50006  1.0000
  H   H7        1.0  0.27342  0.68644  0.55866  1.0000
  Br  Br9       1.0  0.27360  0.85604  0.60799  1.0000
  Br  Br10      1.0  0.22612  0.75291  0.23003  1.0000
  Br  Br11      1.0  0.23702  0.88732  0.12090  1.0000
  H   H8        1.0  0.22596  0.55320  0.17146  1.0000
  H   H9        1.0  0.35892  0.02632  0.14666  1.0000
