data_image0
_chemical_formula_structural       O7Zn2OC22N2C8H2C6H9C6H8C6H7C6H5C6H5C6H6C6H6
_chemical_formula_sum              "O8 Zn2 C72 N2 H48"
_cell_length_a       16.1093
_cell_length_b       10.5405
_cell_length_c       15.1862
_cell_angle_alpha    89.9984
_cell_angle_beta     89.9994
_cell_angle_gamma    83.9935

_space_group_name_H-M_alt    "P 1"
_space_group_IT_number       1

loop_
  _space_group_symop_operation_xyz
  'x, y, z'

loop_
  _atom_site_type_symbol
  _atom_site_label
  _atom_site_symmetry_multiplicity
  _atom_site_fract_x
  _atom_site_fract_y
  _atom_site_fract_z
  _atom_site_occupancy
  O   O1        1.0  0.10413  0.16316  0.92683  1.0000
  O   O2        1.0  0.86219  0.18346  0.92682  1.0000
  O   O3        1.0  0.98868  0.98853  0.92683  1.0000
  O   O4        1.0  0.97764  0.35810  0.92682  1.0000
  O   O5        1.0  0.98867  0.98852  0.07328  1.0000
  O   O6        1.0  0.86218  0.18346  0.07328  1.0000
  O   O7        1.0  0.10412  0.16316  0.07329  1.0000
  Zn  Zn1       1.0  0.98315  0.17331  0.09654  1.0000
  Zn  Zn2       1.0  0.98316  0.17331  0.90357  1.0000
  O   O8        1.0  0.97763  0.35809  0.07328  1.0000
  C   C1        1.0  0.83121  0.18264  0.00005  1.0000
  C   C2        1.0  0.73890  0.18017  0.00004  1.0000
  C   C3        1.0  0.98785  0.94123  0.00005  1.0000
  C   C4        1.0  0.98537  0.80032  0.00005  1.0000
  C   C5        1.0  0.51730  0.29011  0.00005  1.0000
  C   C6        1.0  0.43056  0.28779  0.00005  1.0000
  C   C7        1.0  0.44902  0.05650  0.00005  1.0000
  C   C8        1.0  0.53575  0.05883  0.00005  1.0000
  C   C9        1.0  0.56989  0.17564  0.00005  1.0000
  C   C10       1.0  0.39642  0.17098  0.00005  1.0000
  C   C11       1.0  0.30238  0.16846  0.00006  1.0000
  C   C12       1.0  0.66394  0.17816  0.00004  1.0000
  C   C13       1.0  0.89046  0.61825  0.99971  1.0000
  C   C14       1.0  0.89297  0.76483  0.00004  1.0000
  C   C15       1.0  0.02983  0.73803  0.08369  1.0000
  C   C16       1.0  0.02668  0.59153  0.08375  1.0000
  C   C17       1.0  0.02857  0.59099  0.91721  1.0000
  C   C18       1.0  0.02942  0.73796  0.91610  1.0000
  C   C19       1.0  0.13510  0.16398  0.00006  1.0000
  C   C20       1.0  0.22741  0.16645  0.00006  1.0000
  C   C21       1.0  0.97846  0.40539  0.00005  1.0000
  C   C22       1.0  0.98094  0.54630  0.00005  1.0000
  N   N1        1.0  0.98315  0.17330  0.22823  1.0000
  N   N2        1.0  0.98317  0.17330  0.77188  1.0000
  C   C23       1.0  0.03918  0.08701  0.45395  1.0000
  C   C24       1.0  0.03918  0.08701  0.54614  1.0000
  C   C25       1.0  0.92713  0.25960  0.54615  1.0000
  C   C26       1.0  0.92713  0.25959  0.45396  1.0000
  C   C27       1.0  0.98315  0.17330  0.40786  1.0000
  C   C28       1.0  0.98316  0.17330  0.59224  1.0000
  C   C29       1.0  0.98316  0.17330  0.69220  1.0000
  C   C30       1.0  0.98315  0.17330  0.30790  1.0000
  H   H1        1.0  0.54509  0.38523  0.00005  1.0000
  H   H2        1.0  0.88150  0.32986  0.41643  1.0000
  C   C31       1.0  0.98818  0.54895  0.83156  1.0000
  C   C32       1.0  0.98306  0.40625  0.81337  1.0000
  C   C33       1.0  0.94266  0.36421  0.72773  1.0000
  C   C34       1.0  0.90737  0.46487  0.66029  1.0000
  C   C35       1.0  0.91249  0.60758  0.67849  1.0000
  C   C36       1.0  0.95289  0.64961  0.76412  1.0000
  H   H3        1.0  0.00918  0.33173  0.86329  1.0000
  H   H4        1.0  0.93887  0.25858  0.71426  1.0000
  H   H5        1.0  0.87747  0.43375  0.59690  1.0000
  H   H6        1.0  0.88637  0.68210  0.62856  1.0000
  H   H7        1.0  0.95668  0.75525  0.77759  1.0000
  H   H8        1.0  0.38774  0.38100  0.00006  1.0000
  H   H9        1.0  0.42122  0.96139  0.00006  1.0000
  H   H10       1.0  0.57858  0.96560  0.00005  1.0000
  H   H11       1.0  0.88152  0.32986  0.58368  1.0000
  C   C37       1.0  0.10081  0.99210  0.59684  1.0000
  C   C38       1.0  0.16244  0.89720  0.54614  1.0000
  C   C39       1.0  0.22407  0.80227  0.59684  1.0000
  C   C40       1.0  0.22407  0.80226  0.69824  1.0000
  C   C41       1.0  0.16243  0.89716  0.74895  1.0000
  C   C42       1.0  0.10080  0.99208  0.69825  1.0000
  H   H12       1.0  0.16244  0.89721  0.47107  1.0000
  H   H13       1.0  0.26969  0.73202  0.55930  1.0000
  H   H14       1.0  0.26969  0.73199  0.73577  1.0000
  H   H15       1.0  0.16243  0.89715  0.82402  1.0000
  H   H16       1.0  0.05518  0.06234  0.73579  1.0000
  H   H17       1.0  0.85799  0.80793  0.94009  1.0000
  H   H18       1.0  0.85396  0.59017  0.93974  1.0000
  H   H19       1.0  0.99894  0.78107  0.14592  1.0000
  C   C43       1.0  0.84134  0.57815  0.08028  1.0000
  C   C44       1.0  0.88303  0.48045  0.14628  1.0000
  C   C45       1.0  0.83391  0.44034  0.22685  1.0000
  C   C46       1.0  0.74311  0.49794  0.24141  1.0000
  C   C47       1.0  0.70142  0.59565  0.17541  1.0000
  C   C48       1.0  0.75053  0.63575  0.09484  1.0000
  H   H20       1.0  0.95025  0.43780  0.13550  1.0000
  H   H21       1.0  0.86477  0.36801  0.27571  1.0000
  H   H22       1.0  0.70675  0.46826  0.30105  1.0000
  H   H23       1.0  0.63419  0.63830  0.18619  1.0000
  H   H24       1.0  0.71967  0.70809  0.04598  1.0000
  H   H25       1.0  0.85773  0.80709  0.06009  1.0000
  H   H26       1.0  0.09531  0.54281  0.91665  1.0000
  C   C49       1.0  0.10080  0.99209  0.40325  1.0000
  C   C50       1.0  0.16467  0.04170  0.33987  1.0000
  C   C51       1.0  0.22629  0.94677  0.28917  1.0000
  C   C52       1.0  0.22404  0.80222  0.30185  1.0000
  C   C53       1.0  0.16016  0.75260  0.36524  1.0000
  C   C54       1.0  0.09854  0.84753  0.41594  1.0000
  H   H27       1.0  0.16634  0.14872  0.33048  1.0000
  H   H28       1.0  0.27358  0.98351  0.24225  1.0000
  H   H29       1.0  0.26965  0.73195  0.26432  1.0000
  H   H30       1.0  0.15849  0.64559  0.37463  1.0000
  H   H31       1.0  0.05125  0.81080  0.46286  1.0000
  C   C55       1.0  0.11644  0.52543  0.08890  1.0000
  C   C56       1.0  0.14275  0.43646  0.16669  1.0000
  C   C57       1.0  0.23251  0.37036  0.17184  1.0000
  C   C58       1.0  0.29597  0.39324  0.09920  1.0000
  C   C59       1.0  0.26966  0.48222  0.02141  1.0000
  C   C60       1.0  0.17990  0.54831  0.01626  1.0000
  H   H32       1.0  0.09578  0.41952  0.22046  1.0000
  H   H33       1.0  0.25199  0.30449  0.22943  1.0000
  H   H34       1.0  0.36242  0.34431  0.10302  1.0000
  H   H35       1.0  0.31664  0.49916  0.96764  1.0000
  H   H36       1.0  0.16043  0.61418  0.95867  1.0000
  C   C61       1.0  0.12150  0.76694  0.08790  1.0000
  C   C62       1.0  0.14239  0.90604  0.09244  1.0000
  C   C63       1.0  0.23406  0.93497  0.09665  1.0000
  C   C64       1.0  0.30482  0.82478  0.09631  1.0000
  C   C65       1.0  0.28392  0.68566  0.09176  1.0000
  C   C66       1.0  0.19226  0.65674  0.08756  1.0000
  H   H37       1.0  0.09001  0.98762  0.09269  1.0000
  H   H38       1.0  0.24952  0.03795  0.10001  1.0000
  H   H39       1.0  0.37267  0.84619  0.09942  1.0000
  H   H40       1.0  0.33631  0.60408  0.09151  1.0000
  H   H41       1.0  0.17679  0.55375  0.08419  1.0000
  H   H42       1.0  0.99381  0.56380  0.14627  1.0000
  C   C67       1.0  0.98549  0.79390  0.83253  1.0000
  C   C68       1.0  0.89246  0.77947  0.81719  1.0000
  C   C69       1.0  0.84851  0.83543  0.73364  1.0000
  C   C70       1.0  0.89760  0.90581  0.66543  1.0000
  C   C71       1.0  0.99064  0.92024  0.68077  1.0000
  C   C72       1.0  0.03459  0.86428  0.76433  1.0000
  H   H43       1.0  0.85611  0.72737  0.86768  1.0000
  H   H44       1.0  0.77963  0.82475  0.72228  1.0000
  H   H45       1.0  0.86507  0.94723  0.60358  1.0000
  H   H46       1.0  0.02699  0.97235  0.63028  1.0000
  H   H47       1.0  0.10346  0.87497  0.77568  1.0000
  H   H48       1.0  0.09678  0.76122  0.91105  1.0000
