data_image0
_chemical_formula_structural       O7Zn2OC18NC10NC10HF3H3FHF2H2FH2F2
_chemical_formula_sum              "O8 Zn2 C38 N2 H9 F9"
_cell_length_a       15.9446
_cell_length_b       15.9446
_cell_length_c       15.0214
_cell_angle_alpha    90.0028
_cell_angle_beta     90.0031
_cell_angle_gamma    96.5013

_space_group_name_H-M_alt    "P 1"
_space_group_IT_number       1

loop_
  _space_group_symop_operation_xyz
  'x, y, z'

loop_
  _atom_site_type_symbol
  _atom_site_label
  _atom_site_symmetry_multiplicity
  _atom_site_fract_x
  _atom_site_fract_y
  _atom_site_fract_z
  _atom_site_occupancy
  O   O1        1.0  0.10832  0.88547  0.92606  1.0000
  O   O2        1.0  0.12168  0.13002  0.92604  1.0000
  O   O3        1.0  0.99272  0.00107  0.92606  1.0000
  O   O4        1.0  0.23727  0.01442  0.92604  1.0000
  O   O5        1.0  0.99274  0.00109  0.07412  1.0000
  O   O6        1.0  0.12169  0.13004  0.07410  1.0000
  O   O7        1.0  0.10834  0.88549  0.07412  1.0000
  Zn  Zn1       1.0  0.11502  0.00777  0.09762  1.0000
  Zn  Zn2       1.0  0.11500  0.00774  0.90254  1.0000
  O   O8        1.0  0.23729  0.01444  0.07410  1.0000
  C   C1        1.0  0.12113  0.16132  0.00007  1.0000
  C   C2        1.0  0.11947  0.25457  0.00006  1.0000
  C   C3        1.0  0.96144  0.00163  0.00009  1.0000
  C   C4        1.0  0.86819  0.00329  0.00009  1.0000
  C   C5        1.0  0.10888  0.85419  0.00009  1.0000
  C   C6        1.0  0.11055  0.76094  0.00009  1.0000
  C   C7        1.0  0.65334  0.08720  0.00007  1.0000
  C   C8        1.0  0.59233  0.04825  0.07308  1.0000
  C   C9        1.0  0.69747  0.00630  0.00008  1.0000
  C   C10       1.0  0.59233  0.04821  0.92710  1.0000
  C   C11       1.0  0.53256  0.00921  0.00007  1.0000
  C   C12       1.0  0.63769  0.96733  0.07315  1.0000
  C   C13       1.0  0.63769  0.96730  0.92711  1.0000
  C   C14       1.0  0.57670  0.92829  0.00013  1.0000
  C   C15       1.0  0.79247  0.00463  0.00009  1.0000
  C   C16       1.0  0.43755  0.01088  0.00007  1.0000
  C   C17       1.0  0.26858  0.01388  0.00007  1.0000
  C   C18       1.0  0.36182  0.01222  0.00006  1.0000
  N   N1        1.0  0.11504  0.00778  0.23076  1.0000
  C   C19       1.0  0.03557  0.46943  0.00008  1.0000
  C   C20       1.0  0.07452  0.53044  0.92707  1.0000
  C   C21       1.0  0.11646  0.42530  0.00007  1.0000
  C   C22       1.0  0.07456  0.53044  0.07305  1.0000
  C   C23       1.0  0.11355  0.59021  0.00008  1.0000
  C   C24       1.0  0.15544  0.48508  0.92700  1.0000
  C   C25       1.0  0.15546  0.48507  0.07305  1.0000
  C   C26       1.0  0.19448  0.54606  0.00002  1.0000
  C   C27       1.0  0.11814  0.33030  0.00006  1.0000
  C   C28       1.0  0.11188  0.68521  0.00009  1.0000
  N   N2        1.0  0.11497  0.00772  0.76940  1.0000
  C   C29       1.0  0.17464  0.06742  0.47043  1.0000
  C   C30       1.0  0.19094  0.99152  0.52977  1.0000
  C   C31       1.0  0.11501  0.00776  0.41237  1.0000
  C   C32       1.0  0.09873  0.08364  0.52977  1.0000
  C   C33       1.0  0.11500  0.00775  0.58779  1.0000
  C   C34       1.0  0.13136  0.93182  0.47040  1.0000
  C   C35       1.0  0.03911  0.02399  0.47039  1.0000
  C   C36       1.0  0.05539  0.94804  0.52970  1.0000
  C   C37       1.0  0.11503  0.00777  0.31131  1.0000
  C   C38       1.0  0.11498  0.00773  0.68884  1.0000
  H   H1        1.0  0.68664  0.15435  0.00014  1.0000
  F   F1        1.0  0.02983  0.55670  0.15373  1.0000
  F   F2        1.0  0.27483  0.97355  0.56387  1.0000
  F   F3        1.0  0.24059  0.13330  0.43641  1.0000
  H   H2        1.0  0.96843  0.43610  1.00000  1.0000
  H   H3        1.0  0.14521  0.86763  0.44443  1.0000
  H   H4        1.0  0.00496  0.89753  0.55556  1.0000
  F   F4        1.0  0.02979  0.55671  0.84640  1.0000
  H   H5        1.0  0.65769  0.93315  0.13494  1.0000
  F   F5        1.0  0.20016  0.45877  0.15372  1.0000
  F   F6        1.0  0.56606  0.09294  0.84643  1.0000
  H   H6        1.0  0.97495  0.03776  0.44428  1.0000
  H   H7        1.0  0.57223  0.08247  0.13479  1.0000
  F   F7        1.0  0.53336  0.84045  0.00019  1.0000
  H   H8        1.0  0.08496  0.14782  0.55585  1.0000
  H   H9        1.0  0.65782  0.93310  0.86538  1.0000
  F   F8        1.0  0.20012  0.45895  0.84624  1.0000
  F   F9        1.0  0.28232  0.58941  0.99997  1.0000
