data_image0
_chemical_formula_structural       O7Zn2OC32N2C8H2OC2H6OC2H6OC2H6OC2H7OC2H5OC2H6OC2H5OC2H7OC2H6
_chemical_formula_sum              "O17 Zn2 C58 N2 H56"
_cell_length_a       16.1093
_cell_length_b       10.6546
_cell_length_c       15.1862
_cell_angle_alpha    89.9964
_cell_angle_beta     89.9994
_cell_angle_gamma    83.9732

_space_group_name_H-M_alt    "P 1"
_space_group_IT_number       1

loop_
  _space_group_symop_operation_xyz
  'x, y, z'

loop_
  _atom_site_type_symbol
  _atom_site_label
  _atom_site_symmetry_multiplicity
  _atom_site_fract_x
  _atom_site_fract_y
  _atom_site_fract_z
  _atom_site_occupancy
  O   O1        1.0  0.10409  0.16142  0.92683  1.0000
  O   O2        1.0  0.86215  0.18151  0.92681  1.0000
  O   O3        1.0  0.98868  0.98865  0.92683  1.0000
  O   O4        1.0  0.97756  0.35428  0.92681  1.0000
  O   O5        1.0  0.98867  0.98865  0.07328  1.0000
  O   O6        1.0  0.86214  0.18150  0.07327  1.0000
  O   O7        1.0  0.10408  0.16142  0.07329  1.0000
  Zn  Zn1       1.0  0.98311  0.17146  0.09653  1.0000
  Zn  Zn2       1.0  0.98312  0.17146  0.90357  1.0000
  O   O8        1.0  0.97755  0.35428  0.07327  1.0000
  C   C1        1.0  0.83116  0.18069  0.00004  1.0000
  C   C2        1.0  0.73885  0.17825  0.00003  1.0000
  C   C3        1.0  0.51723  0.28702  0.00004  1.0000
  C   C4        1.0  0.43049  0.28472  0.00005  1.0000
  C   C5        1.0  0.44901  0.05590  0.00005  1.0000
  C   C6        1.0  0.53574  0.05820  0.00005  1.0000
  C   C7        1.0  0.56985  0.17376  0.00004  1.0000
  C   C8        1.0  0.39638  0.16916  0.00005  1.0000
  C   C9        1.0  0.30234  0.16666  0.00005  1.0000
  C   C10       1.0  0.66390  0.17626  0.00004  1.0000
  C   C11       1.0  0.98786  0.94186  0.00005  1.0000
  C   C12       1.0  0.98542  0.80245  0.00005  1.0000
  C   C13       1.0  0.05992  0.72195  0.00006  1.0000
  C   C14       1.0  0.05762  0.59096  0.00005  1.0000
  C   C15       1.0  0.90631  0.62098  0.00003  1.0000
  C   C16       1.0  0.90861  0.75197  0.00003  1.0000
  C   C17       1.0  0.14536  0.39393  0.94874  1.0000
  C   C18       1.0  0.21987  0.31343  0.94876  1.0000
  C   C19       1.0  0.28741  0.34268  0.00008  1.0000
  C   C20       1.0  0.28044  0.45244  0.05141  1.0000
  C   C21       1.0  0.20594  0.53293  0.05140  1.0000
  C   C22       1.0  0.13840  0.50368  0.00005  1.0000
  C   C23       1.0  0.82087  0.94900  0.05135  1.0000
  C   C24       1.0  0.74636  0.02950  0.05135  1.0000
  C   C25       1.0  0.67881  0.00025  0.00002  1.0000
  C   C26       1.0  0.68577  0.89049  0.94871  1.0000
  C   C27       1.0  0.76028  0.81000  0.94871  1.0000
  C   C28       1.0  0.82782  0.83925  0.00003  1.0000
  C   C29       1.0  0.13507  0.16223  0.00006  1.0000
  C   C30       1.0  0.22738  0.16467  0.00006  1.0000
  C   C31       1.0  0.97837  0.40106  0.00004  1.0000
  C   C32       1.0  0.98081  0.54047  0.00004  1.0000
  N   N1        1.0  0.98311  0.17146  0.22822  1.0000
  N   N2        1.0  0.98313  0.17146  0.77187  1.0000
  C   C33       1.0  0.03916  0.08609  0.45395  1.0000
  C   C34       1.0  0.03916  0.08608  0.54614  1.0000
  C   C35       1.0  0.92707  0.25683  0.54614  1.0000
  C   C36       1.0  0.92707  0.25683  0.45395  1.0000
  C   C37       1.0  0.98311  0.17146  0.40786  1.0000
  C   C38       1.0  0.98312  0.17146  0.59224  1.0000
  C   C39       1.0  0.98313  0.17145  0.69219  1.0000
  C   C40       1.0  0.98311  0.17146  0.30790  1.0000
  H   H1        1.0  0.12246  0.76305  0.00007  1.0000
  H   H2        1.0  0.38765  0.37694  0.00005  1.0000
  O   O9        1.0  0.34607  0.48063  0.10134  1.0000
  C   C41       1.0  0.44113  0.41500  0.21909  1.0000
  C   C42       1.0  0.36682  0.38290  0.16260  1.0000
  H   H3        1.0  0.45792  0.33602  0.26864  1.0000
  H   H4        1.0  0.49710  0.42551  0.17476  1.0000
  H   H5        1.0  0.42335  0.50730  0.25573  1.0000
  H   H6        1.0  0.38453  0.29059  0.12595  1.0000
  H   H7        1.0  0.31088  0.37248  0.20697  1.0000
  H   H8        1.0  0.54500  0.38112  0.00004  1.0000
  O   O10       1.0  0.41574  0.94375  0.00001  1.0000
  C   C43       1.0  0.29033  0.83879  0.00006  1.0000
  C   C44       1.0  0.32789  0.96588  0.00009  1.0000
  H   H9        1.0  0.21930  0.85664  0.00014  1.0000
  H   H10       1.0  0.31189  0.78281  0.93876  1.0000
  H   H11       1.0  0.31199  0.78282  0.06134  1.0000
  H   H12       1.0  0.30624  0.02195  0.93885  1.0000
  H   H13       1.0  0.30634  0.02177  0.06143  1.0000
  H   H14       1.0  0.84377  0.57986  0.00002  1.0000
  O   O11       1.0  0.87260  0.33959  0.59101  1.0000
  C   C45       1.0  0.75919  0.36628  0.69507  1.0000
  C   C46       1.0  0.82085  0.27241  0.64432  1.0000
  H   H15       1.0  0.71732  0.31200  0.73817  1.0000
  H   H16       1.0  0.79541  0.42901  0.73828  1.0000
  H   H17       1.0  0.71917  0.42732  0.64627  1.0000
  H   H18       1.0  0.86088  0.21129  0.69305  1.0000
  H   H19       1.0  0.78458  0.20976  0.60110  1.0000
  H   H20       1.0  0.57859  0.96597  0.00006  1.0000
  O   O12       1.0  0.87260  0.33988  0.40931  1.0000
  C   C47       1.0  0.76139  0.50919  0.41903  1.0000
  C   C48       1.0  0.82305  0.41523  0.46969  1.0000
  H   H21       1.0  0.72130  0.57011  0.46783  1.0000
  H   H22       1.0  0.79760  0.57202  0.37588  1.0000
  H   H23       1.0  0.71958  0.45492  0.37585  1.0000
  H   H24       1.0  0.86487  0.46939  0.51292  1.0000
  H   H25       1.0  0.78678  0.35239  0.51278  1.0000
  H   H26       1.0  0.20027  0.62229  0.09320  1.0000
  H   H27       1.0  0.34807  0.27713  0.00010  1.0000
  O   O13       1.0  0.09352  0.00321  0.59105  1.0000
  C   C49       1.0  0.14324  0.92758  0.73307  1.0000
  C   C50       1.0  0.08162  0.02150  0.68232  1.0000
  H   H28       1.0  0.13365  0.94235  0.80687  1.0000
  H   H29       1.0  0.13183  0.82696  0.71501  1.0000
  H   H30       1.0  0.20991  0.94397  0.71489  1.0000
  H   H31       1.0  0.01492  0.00523  0.70048  1.0000
  H   H32       1.0  0.09310  0.12208  0.70038  1.0000
  O   O14       1.0  0.22665  0.20695  0.89875  1.0000
  C   C51       1.0  0.22181  0.11896  0.75290  1.0000
  C   C52       1.0  0.21413  0.23965  0.80941  1.0000
  H   H33       1.0  0.21168  0.14536  0.68066  1.0000
  H   H34       1.0  0.28667  0.06644  0.76166  1.0000
  H   H35       1.0  0.17271  0.05573  0.77457  1.0000
  H   H36       1.0  0.26318  0.30298  0.78778  1.0000
  H   H37       1.0  0.14924  0.29207  0.80065  1.0000
  H   H38       1.0  0.08479  0.01657  0.41643  1.0000
  O   O15       1.0  0.73951  0.13602  0.10130  1.0000
  C   C53       1.0  0.66635  0.25219  0.21894  1.0000
  C   C54       1.0  0.67403  0.13148  0.16245  1.0000
  H   H39       1.0  0.61340  0.24857  0.26838  1.0000
  H   H40       1.0  0.72738  0.25931  0.25569  1.0000
  H   H41       1.0  0.65253  0.33810  0.17452  1.0000
  H   H42       1.0  0.68782  0.04550  0.20681  1.0000
  H   H43       1.0  0.61298  0.12447  0.12570  1.0000
  O   O16       1.0  0.07979  0.36568  0.89876  1.0000
  C   C55       1.0  0.98466  0.43136  0.78108  1.0000
  C   C56       1.0  0.05894  0.46350  0.83760  1.0000
  H   H44       1.0  0.96778  0.51044  0.73163  1.0000
  H   H45       1.0  0.00242  0.33914  0.74434  1.0000
  H   H46       1.0  0.92876  0.42075  0.82547  1.0000
  H   H47       1.0  0.11487  0.47418  0.79326  1.0000
  H   H48       1.0  0.04112  0.55570  0.87434  1.0000
  H   H49       1.0  0.76594  0.72064  0.90691  1.0000
  H   H50       1.0  0.61814  0.06579  0.00004  1.0000
  O   O17       1.0  0.62019  0.86224  0.89874  1.0000
  C   C57       1.0  0.52504  0.92792  0.78108  1.0000
  C   C58       1.0  0.59933  0.96006  0.83758  1.0000
  H   H51       1.0  0.50815  0.00700  0.73163  1.0000
  H   H52       1.0  0.54279  0.83569  0.74433  1.0000
  H   H53       1.0  0.46915  0.91731  0.82549  1.0000
  H   H54       1.0  0.65525  0.97074  0.79324  1.0000
  H   H55       1.0  0.58152  0.05226  0.87433  1.0000
  H   H56       1.0  0.87587  0.97285  0.09313  1.0000
