data_image0
_chemical_formula_structural       Zn4O13C8ONCOC10NC11O2C10H3F2H3F8HF2H
_chemical_formula_sum              "Zn4 O17 C40 N2 H8 F12"
_cell_length_a       12.8279
_cell_length_b       25.6392
_cell_length_c       12.8279
_cell_angle_alpha    90.036
_cell_angle_beta     90.0193
_cell_angle_gamma    90.0387

_space_group_name_H-M_alt    "P 1"
_space_group_IT_number       1

loop_
  _space_group_symop_operation_xyz
  'x, y, z'

loop_
  _atom_site_type_symbol
  _atom_site_label
  _atom_site_symmetry_multiplicity
  _atom_site_fract_x
  _atom_site_fract_y
  _atom_site_fract_z
  _atom_site_occupancy
  Zn  Zn1       1.0  0.59750  0.79187  0.59080  1.0000
  Zn  Zn2       1.0  0.59732  0.70443  0.41604  1.0000
  Zn  Zn3       1.0  0.42274  0.79185  0.41608  1.0000
  Zn  Zn4       1.0  0.42266  0.70447  0.59074  1.0000
  O   O1        1.0  0.51005  0.74816  0.50342  1.0000
  O   O2        1.0  0.74371  0.78027  0.56763  1.0000
  O   O3        1.0  0.57413  0.71600  0.26981  1.0000
  O   O4        1.0  0.44603  0.86502  0.43929  1.0000
  O   O5        1.0  0.74358  0.71602  0.43924  1.0000
  O   O6        1.0  0.57443  0.86504  0.56766  1.0000
  O   O7        1.0  0.44586  0.78023  0.26984  1.0000
  O   O8        1.0  0.27649  0.78026  0.43924  1.0000
  O   O9        1.0  0.44589  0.71609  0.73699  1.0000
  O   O10       1.0  0.27643  0.71606  0.56756  1.0000
  O   O11       1.0  0.57435  0.78031  0.73703  1.0000
  O   O12       1.0  0.57404  0.63127  0.43918  1.0000
  O   O13       1.0  0.44572  0.63130  0.56753  1.0000
  C   C1        1.0  0.23855  0.74816  0.50340  1.0000
  C   C2        1.0  0.12239  0.74816  0.50341  1.0000
  C   C3        1.0  0.07060  0.71634  0.56682  1.0000
  C   C4        1.0  0.95055  0.71633  0.56683  1.0000
  C   C5        1.0  0.50988  0.61231  0.50337  1.0000
  C   C6        1.0  0.50990  0.55420  0.50338  1.0000
  C   C7        1.0  0.57705  0.19383  0.43670  1.0000
  C   C8        1.0  0.57709  0.13923  0.43671  1.0000
  O   O14       1.0  0.63400  0.11099  0.37996  1.0000
  N   N1        1.0  0.51024  0.11192  0.50349  1.0000
  C   C9        1.0  0.44335  0.13921  0.57026  1.0000
  O   O15       1.0  0.38649  0.11096  0.62706  1.0000
  C   C10       1.0  0.44332  0.19381  0.57025  1.0000
  C   C11       1.0  0.51016  0.22112  0.50346  1.0000
  C   C12       1.0  0.64389  0.22114  0.36992  1.0000
  C   C13       1.0  0.64385  0.27574  0.36990  1.0000
  C   C14       1.0  0.57697  0.30303  0.43667  1.0000
  C   C15       1.0  0.51012  0.27572  0.50345  1.0000
  C   C16       1.0  0.37643  0.22111  0.63703  1.0000
  C   C17       1.0  0.37641  0.27571  0.63701  1.0000
  C   C18       1.0  0.44325  0.30302  0.57022  1.0000
  C   C19       1.0  0.44319  0.35762  0.57020  1.0000
  N   N2        1.0  0.51005  0.38493  0.50342  1.0000
  C   C20       1.0  0.57693  0.35764  0.43666  1.0000
  C   C21       1.0  0.44343  0.02454  0.57027  1.0000
  C   C22       1.0  0.44346  0.96994  0.57028  1.0000
  C   C23       1.0  0.57720  0.96996  0.43674  1.0000
  C   C24       1.0  0.57716  0.02456  0.43673  1.0000
  C   C25       1.0  0.51028  0.05185  0.50350  1.0000
  C   C26       1.0  0.57684  0.47230  0.43663  1.0000
  C   C27       1.0  0.57679  0.52691  0.43662  1.0000
  C   C28       1.0  0.44305  0.52688  0.57017  1.0000
  C   C29       1.0  0.44310  0.47228  0.57018  1.0000
  C   C30       1.0  0.51000  0.44499  0.50340  1.0000
  O   O16       1.0  0.38632  0.38589  0.62692  1.0000
  O   O17       1.0  0.63379  0.38589  0.37988  1.0000
  C   C31       1.0  0.78263  0.74814  0.50344  1.0000
  C   C32       1.0  0.89878  0.74814  0.50345  1.0000
  C   C33       1.0  0.51013  0.74821  0.77599  1.0000
  C   C34       1.0  0.51016  0.74823  0.89214  1.0000
  C   C35       1.0  0.51026  0.88453  0.50349  1.0000
  C   C36       1.0  0.51035  0.94264  0.50352  1.0000
  C   C37       1.0  0.51005  0.74814  0.23191  1.0000
  C   C38       1.0  0.51022  0.74827  0.11575  1.0000
  C   C39       1.0  0.57373  0.78001  0.94395  1.0000
  C   C40       1.0  0.57376  0.78003  0.06400  1.0000
  H   H1        1.0  0.07785  0.77539  0.44915  1.0000
  H   H2        1.0  0.11514  0.68911  0.62109  1.0000
  H   H3        1.0  0.90602  0.68909  0.62111  1.0000
  F   F1        1.0  0.95698  0.78374  0.43249  1.0000
  F   F2        1.0  0.64794  0.55597  0.36553  1.0000
  H   H4        1.0  0.69837  0.19893  0.31555  1.0000
  H   H5        1.0  0.45575  0.72104  0.93666  1.0000
  H   H6        1.0  0.63132  0.45009  0.38226  1.0000
  F   F3        1.0  0.71501  0.30480  0.29883  1.0000
  F   F4        1.0  0.37223  0.05358  0.64134  1.0000
  F   F5        1.0  0.37193  0.44321  0.64124  1.0000
  F   F6        1.0  0.43908  0.71270  0.05753  1.0000
  F   F7        1.0  0.64831  0.05362  0.36564  1.0000
  F   F8        1.0  0.64838  0.94091  0.36568  1.0000
  F   F9        1.0  0.37187  0.55594  0.64122  1.0000
  F   F10       1.0  0.37230  0.94088  0.64135  1.0000
  H   H7        1.0  0.62819  0.80724  0.10855  1.0000
  F   F11       1.0  0.30529  0.19205  0.70812  1.0000
  F   F12       1.0  0.30522  0.30475  0.70809  1.0000
  H   H8        1.0  0.62813  0.80720  0.89942  1.0000
