data_image0
_chemical_formula_structural       Zn8O26C40O2N2C2O2C20N2C22O4C16O2N2C2O2C20N2C22O4C4H4O2C4H12O2C4H10O2C4H10O2C4H10O2C4H10O2C4H10O2C4H10O2C4H10O2C4H14O2C4H14O2C4H10O2C4H10O2C4H12O2C4H10O2C4H12O2C4H12O2C4H14O2C4H12O2C4H10
_chemical_formula_sum              "Zn8 O80 C224 N8 H216"
_cell_length_a       16.9595
_cell_length_b       25.6392
_cell_length_c       25.6392
_cell_angle_alpha    89.9679
_cell_angle_beta     89.9805
_cell_angle_gamma    90.0297

_space_group_name_H-M_alt    "P 1"
_space_group_IT_number       1

loop_
  _space_group_symop_operation_xyz
  'x, y, z'

loop_
  _atom_site_type_symbol
  _atom_site_label
  _atom_site_symmetry_multiplicity
  _atom_site_fract_x
  _atom_site_fract_y
  _atom_site_fract_z
  _atom_site_occupancy
  Zn  Zn1       1.0  0.20835  0.79177  0.70442  1.0000
  Zn  Zn2       1.0  0.70835  0.29177  0.20442  1.0000
  Zn  Zn3       1.0  0.20824  0.70435  0.79187  1.0000
  Zn  Zn4       1.0  0.70824  0.20435  0.29187  1.0000
  Zn  Zn5       1.0  0.07617  0.79177  0.79184  1.0000
  Zn  Zn6       1.0  0.57617  0.29177  0.29184  1.0000
  Zn  Zn7       1.0  0.07612  0.70437  0.70446  1.0000
  Zn  Zn8       1.0  0.57612  0.20437  0.20446  1.0000
  O   O1        1.0  0.14222  0.74807  0.74815  1.0000
  O   O2        1.0  0.64222  0.24807  0.24815  1.0000
  O   O3        1.0  0.31895  0.78017  0.71602  1.0000
  O   O4        1.0  0.81895  0.28017  0.21602  1.0000
  O   O5        1.0  0.19069  0.71593  0.86503  1.0000
  O   O6        1.0  0.69069  0.21593  0.36503  1.0000
  O   O7        1.0  0.09378  0.86494  0.78022  1.0000
  O   O8        1.0  0.59378  0.36494  0.28022  1.0000
  O   O9        1.0  0.31886  0.71593  0.78026  1.0000
  O   O10       1.0  0.81886  0.21593  0.28026  1.0000
  O   O11       1.0  0.19089  0.86494  0.71599  1.0000
  O   O12       1.0  0.69089  0.36494  0.21599  1.0000
  O   O13       1.0  0.09366  0.78016  0.86501  1.0000
  O   O14       1.0  0.59366  0.28016  0.36501  1.0000
  O   O15       1.0  0.96555  0.78019  0.78026  1.0000
  O   O16       1.0  0.46555  0.28019  0.28026  1.0000
  O   O17       1.0  0.09369  0.71598  0.63129  1.0000
  O   O18       1.0  0.59369  0.21598  0.13129  1.0000
  O   O19       1.0  0.96551  0.71598  0.71606  1.0000
  O   O20       1.0  0.46551  0.21598  0.21606  1.0000
  O   O21       1.0  0.19084  0.78019  0.63126  1.0000
  O   O22       1.0  0.69084  0.28019  0.13126  1.0000
  O   O23       1.0  0.19064  0.63118  0.78030  1.0000
  O   O24       1.0  0.69064  0.13118  0.28030  1.0000
  O   O25       1.0  0.09357  0.63120  0.71609  1.0000
  O   O26       1.0  0.59357  0.13120  0.21609  1.0000
  C   C1        1.0  0.93685  0.74808  0.74816  1.0000
  C   C2        1.0  0.43685  0.24808  0.24816  1.0000
  C   C3        1.0  0.84900  0.74808  0.74815  1.0000
  C   C4        1.0  0.34900  0.24808  0.24815  1.0000
  C   C5        1.0  0.47752  0.78153  0.78151  1.0000
  C   C6        1.0  0.97752  0.28153  0.28151  1.0000
  C   C7        1.0  0.47752  0.71456  0.71476  1.0000
  C   C8        1.0  0.97752  0.21456  0.21476  1.0000
  C   C9        1.0  0.56007  0.71457  0.71477  1.0000
  C   C10       1.0  0.06007  0.21457  0.21477  1.0000
  C   C11       1.0  0.60134  0.74806  0.74814  1.0000
  C   C12       1.0  0.10134  0.24806  0.24814  1.0000
  C   C13       1.0  0.56007  0.78154  0.78151  1.0000
  C   C14       1.0  0.06007  0.28154  0.28151  1.0000
  C   C15       1.0  0.60135  0.68109  0.68140  1.0000
  C   C16       1.0  0.10135  0.18109  0.18140  1.0000
  C   C17       1.0  0.68390  0.68109  0.68140  1.0000
  C   C18       1.0  0.18390  0.18109  0.18140  1.0000
  C   C19       1.0  0.72518  0.71458  0.71477  1.0000
  C   C20       1.0  0.22518  0.21458  0.21477  1.0000
  C   C21       1.0  0.68390  0.74806  0.74815  1.0000
  C   C22       1.0  0.18390  0.24806  0.24815  1.0000
  C   C23       1.0  0.72517  0.78155  0.78152  1.0000
  C   C24       1.0  0.22517  0.28155  0.28152  1.0000
  C   C25       1.0  0.68389  0.81503  0.81489  1.0000
  C   C26       1.0  0.18389  0.31504  0.31489  1.0000
  C   C27       1.0  0.60134  0.81503  0.81488  1.0000
  C   C28       1.0  0.10134  0.31503  0.31489  1.0000
  C   C29       1.0  0.80772  0.71459  0.71478  1.0000
  C   C30       1.0  0.30772  0.21459  0.21478  1.0000
  C   C31       1.0  0.80772  0.78156  0.78153  1.0000
  C   C32       1.0  0.30772  0.28156  0.28153  1.0000
  C   C33       1.0  0.14211  0.61222  0.74819  1.0000
  C   C34       1.0  0.64211  0.11222  0.24819  1.0000
  C   C35       1.0  0.14213  0.55411  0.74819  1.0000
  C   C36       1.0  0.64213  0.05411  0.24819  1.0000
  C   C37       1.0  0.19281  0.19379  0.71464  1.0000
  C   C38       1.0  0.69281  0.69379  0.21465  1.0000
  C   C39       1.0  0.19284  0.13918  0.71464  1.0000
  C   C40       1.0  0.69284  0.63918  0.21463  1.0000
  O   O27       1.0  0.23579  0.11098  0.68616  1.0000
  O   O28       1.0  0.73579  0.61098  0.18616  1.0000
  N   N1        1.0  0.14233  0.11183  0.74810  1.0000
  N   N2        1.0  0.64233  0.61183  0.24810  1.0000
  C   C41       1.0  0.09179  0.13908  0.78157  1.0000
  C   C42       1.0  0.59179  0.63908  0.28157  1.0000
  O   O29       1.0  0.04883  0.11080  0.81003  1.0000
  O   O30       1.0  0.54883  0.61080  0.31003  1.0000
  C   C43       1.0  0.09176  0.19368  0.78158  1.0000
  C   C44       1.0  0.59176  0.69368  0.28158  1.0000
  C   C45       1.0  0.14228  0.22103  0.74812  1.0000
  C   C46       1.0  0.64228  0.72103  0.24812  1.0000
  C   C47       1.0  0.24332  0.22114  0.68118  1.0000
  C   C48       1.0  0.74332  0.72114  0.18119  1.0000
  C   C49       1.0  0.24330  0.27574  0.68120  1.0000
  C   C50       1.0  0.74330  0.77574  0.18120  1.0000
  C   C51       1.0  0.19277  0.30299  0.71467  1.0000
  C   C52       1.0  0.69277  0.80299  0.21467  1.0000
  C   C53       1.0  0.14226  0.27563  0.74813  1.0000
  C   C54       1.0  0.64226  0.77564  0.24813  1.0000
  C   C55       1.0  0.04122  0.22093  0.81505  1.0000
  C   C56       1.0  0.54122  0.72093  0.31505  1.0000
  C   C57       1.0  0.04120  0.27554  0.81505  1.0000
  C   C58       1.0  0.54120  0.77554  0.31505  1.0000
  C   C59       1.0  0.09171  0.30289  0.78159  1.0000
  C   C60       1.0  0.59171  0.80289  0.28159  1.0000
  C   C61       1.0  0.09170  0.35748  0.78161  1.0000
  C   C62       1.0  0.59170  0.85748  0.28161  1.0000
  N   N3        1.0  0.14221  0.38484  0.74815  1.0000
  N   N4        1.0  0.64221  0.88484  0.24815  1.0000
  C   C63       1.0  0.19274  0.35759  0.71468  1.0000
  C   C64       1.0  0.69274  0.85759  0.21468  1.0000
  C   C65       1.0  0.09185  0.02441  0.78155  1.0000
  C   C66       1.0  0.59185  0.52441  0.28155  1.0000
  C   C67       1.0  0.09188  0.96981  0.78155  1.0000
  C   C68       1.0  0.59188  0.46981  0.28155  1.0000
  C   C69       1.0  0.19292  0.96991  0.71461  1.0000
  C   C70       1.0  0.69292  0.46991  0.21461  1.0000
  C   C71       1.0  0.19290  0.02452  0.71462  1.0000
  C   C72       1.0  0.69290  0.52452  0.21462  1.0000
  C   C73       1.0  0.14236  0.05176  0.74809  1.0000
  C   C74       1.0  0.64236  0.55176  0.24809  1.0000
  C   C75       1.0  0.19269  0.47226  0.71470  1.0000
  C   C76       1.0  0.69269  0.97226  0.21470  1.0000
  C   C77       1.0  0.19267  0.52686  0.71472  1.0000
  C   C78       1.0  0.69267  0.02686  0.21472  1.0000
  C   C79       1.0  0.09162  0.52675  0.78165  1.0000
  C   C80       1.0  0.59162  0.02675  0.28165  1.0000
  C   C81       1.0  0.09165  0.47215  0.78164  1.0000
  C   C82       1.0  0.59165  0.97215  0.28164  1.0000
  C   C83       1.0  0.14218  0.44490  0.74816  1.0000
  C   C84       1.0  0.64218  0.94490  0.24816  1.0000
  O   O31       1.0  0.04876  0.38572  0.81007  1.0000
  O   O32       1.0  0.54876  0.88572  0.31007  1.0000
  O   O33       1.0  0.23568  0.38588  0.68621  1.0000
  O   O34       1.0  0.73568  0.88588  0.18621  1.0000
  C   C85       1.0  0.34839  0.74805  0.74814  1.0000
  C   C86       1.0  0.84839  0.24805  0.24814  1.0000
  C   C87       1.0  0.43624  0.74804  0.74813  1.0000
  C   C88       1.0  0.93624  0.24804  0.24813  1.0000
  C   C89       1.0  0.14227  0.74809  0.61178  1.0000
  C   C90       1.0  0.64227  0.24809  0.11178  1.0000
  C   C91       1.0  0.14229  0.74810  0.55366  1.0000
  C   C92       1.0  0.64229  0.24810  0.05366  1.0000
  C   C93       1.0  0.14235  0.88444  0.74810  1.0000
  C   C94       1.0  0.64235  0.38444  0.24810  1.0000
  C   C95       1.0  0.14241  0.94255  0.74807  1.0000
  C   C96       1.0  0.64241  0.44255  0.24807  1.0000
  C   C97       1.0  0.09179  0.78161  0.19328  1.0000
  C   C98       1.0  0.59179  0.28161  0.69328  1.0000
  C   C99       1.0  0.09180  0.78162  0.13868  1.0000
  C   C100      1.0  0.59180  0.28162  0.63868  1.0000
  O   O35       1.0  0.04882  0.81005  0.11043  1.0000
  O   O36       1.0  0.54882  0.31005  0.61043  1.0000
  N   N5        1.0  0.14232  0.74818  0.11138  1.0000
  N   N6        1.0  0.64232  0.24818  0.61138  1.0000
  C   C101      1.0  0.19283  0.71473  0.13869  1.0000
  C   C102      1.0  0.69283  0.21473  0.63869  1.0000
  O   O37       1.0  0.23581  0.68629  0.11045  1.0000
  O   O38       1.0  0.73581  0.18629  0.61045  1.0000
  C   C103      1.0  0.19283  0.71472  0.19329  1.0000
  C   C104      1.0  0.69283  0.21472  0.69329  1.0000
  C   C105      1.0  0.14231  0.74816  0.22059  1.0000
  C   C106      1.0  0.64231  0.24816  0.72059  1.0000
  C   C107      1.0  0.04128  0.81504  0.22058  1.0000
  C   C108      1.0  0.54128  0.31504  0.72058  1.0000
  C   C109      1.0  0.04127  0.81504  0.27518  1.0000
  C   C110      1.0  0.54127  0.31504  0.77518  1.0000
  C   C111      1.0  0.09179  0.78159  0.30249  1.0000
  C   C112      1.0  0.59179  0.28159  0.80249  1.0000
  C   C113      1.0  0.14230  0.74815  0.27519  1.0000
  C   C114      1.0  0.64230  0.24815  0.77519  1.0000
  C   C115      1.0  0.24334  0.68127  0.22060  1.0000
  C   C116      1.0  0.74334  0.18127  0.72060  1.0000
  C   C117      1.0  0.24332  0.68126  0.27520  1.0000
  C   C118      1.0  0.74332  0.18126  0.77520  1.0000
  C   C119      1.0  0.19280  0.71470  0.30250  1.0000
  C   C120      1.0  0.69280  0.21470  0.80250  1.0000
  C   C121      1.0  0.19281  0.71470  0.35709  1.0000
  C   C122      1.0  0.69281  0.21470  0.85709  1.0000
  N   N7        1.0  0.14229  0.74813  0.38439  1.0000
  N   N8        1.0  0.64229  0.24813  0.88439  1.0000
  C   C123      1.0  0.09178  0.78158  0.35709  1.0000
  C   C124      1.0  0.59178  0.28158  0.85709  1.0000
  C   C125      1.0  0.19285  0.71476  0.02402  1.0000
  C   C126      1.0  0.69285  0.21476  0.52402  1.0000
  C   C127      1.0  0.19286  0.71477  0.96941  1.0000
  C   C128      1.0  0.69286  0.21477  0.46941  1.0000
  C   C129      1.0  0.09182  0.78166  0.96941  1.0000
  C   C130      1.0  0.59182  0.28166  0.46941  1.0000
  C   C131      1.0  0.09181  0.78164  0.02401  1.0000
  C   C132      1.0  0.59181  0.28164  0.52401  1.0000
  C   C133      1.0  0.14233  0.74819  0.05132  1.0000
  C   C134      1.0  0.64233  0.24819  0.55132  1.0000
  C   C135      1.0  0.09178  0.78156  0.47175  1.0000
  C   C136      1.0  0.59178  0.28156  0.97175  1.0000
  C   C137      1.0  0.09178  0.78155  0.52636  1.0000
  C   C138      1.0  0.59178  0.28155  0.02636  1.0000
  C   C139      1.0  0.19281  0.71466  0.52636  1.0000
  C   C140      1.0  0.69281  0.21466  0.02636  1.0000
  C   C141      1.0  0.19281  0.71467  0.47176  1.0000
  C   C142      1.0  0.69281  0.21467  0.97176  1.0000
  C   C143      1.0  0.14229  0.74812  0.44446  1.0000
  C   C144      1.0  0.64229  0.24812  0.94446  1.0000
  O   O39       1.0  0.23577  0.68628  0.38538  1.0000
  O   O40       1.0  0.73577  0.18628  0.88538  1.0000
  O   O41       1.0  0.04880  0.81001  0.38533  1.0000
  O   O42       1.0  0.54880  0.31001  0.88533  1.0000
  C   C145      1.0  0.14221  0.74808  0.88399  1.0000
  C   C146      1.0  0.64221  0.24808  0.38399  1.0000
  C   C147      1.0  0.14234  0.74822  0.94210  1.0000
  C   C148      1.0  0.64234  0.24822  0.44211  1.0000
  H   H1        1.0  0.44391  0.80879  0.80868  1.0000
  H   H2        1.0  0.94391  0.30879  0.30868  1.0000
  H   H3        1.0  0.05069  0.80889  0.94717  1.0000
  H   H4        1.0  0.55069  0.30889  0.44717  1.0000
  O   O43       1.0  0.84778  0.81403  0.81402  1.0000
  O   O44       1.0  0.34778  0.31403  0.31402  1.0000
  C   C149      1.0  0.87295  0.83956  0.90291  1.0000
  C   C150      1.0  0.37295  0.33956  0.40291  1.0000
  C   C151      1.0  0.82755  0.80274  0.86617  1.0000
  C   C152      1.0  0.32755  0.30274  0.36617  1.0000
  H   H5        1.0  0.85660  0.83045  0.94508  1.0000
  H   H6        1.0  0.35660  0.33045  0.44508  1.0000
  H   H7        1.0  0.93905  0.83381  0.89723  1.0000
  H   H8        1.0  0.43905  0.33381  0.39723  1.0000
  H   H9        1.0  0.85676  0.88170  0.89362  1.0000
  H   H10       1.0  0.35676  0.38170  0.39362  1.0000
  H   H11       1.0  0.84367  0.76058  0.87544  1.0000
  H   H12       1.0  0.34367  0.26058  0.37544  1.0000
  H   H13       1.0  0.76147  0.80854  0.87186  1.0000
  H   H14       1.0  0.26147  0.30854  0.37185  1.0000
  H   H15       1.0  0.23401  0.68755  0.94719  1.0000
  H   H16       1.0  0.73401  0.18755  0.44719  1.0000
  O   O45       1.0  0.04285  0.81418  0.05055  1.0000
  O   O46       1.0  0.54285  0.31418  0.55055  1.0000
  C   C153      1.0  0.03226  0.88474  0.11220  1.0000
  C   C154      1.0  0.53226  0.38474  0.61220  1.0000
  C   C155      1.0  0.08781  0.84793  0.08217  1.0000
  C   C156      1.0  0.58781  0.34793  0.58217  1.0000
  H   H17       1.0  0.06858  0.91203  0.13777  1.0000
  H   H18       1.0  0.56858  0.41203  0.63777  1.0000
  H   H19       1.0  0.99617  0.90868  0.08332  1.0000
  H   H20       1.0  0.49617  0.40868  0.58332  1.0000
  H   H21       1.0  0.99088  0.86072  0.13775  1.0000
  H   H22       1.0  0.49088  0.36072  0.63775  1.0000
  H   H23       1.0  0.12923  0.87191  0.05662  1.0000
  H   H24       1.0  0.62923  0.37191  0.55662  1.0000
  H   H25       1.0  0.12383  0.82399  0.11108  1.0000
  H   H26       1.0  0.62383  0.32399  0.61108  1.0000
  O   O47       1.0  0.43752  0.68206  0.68227  1.0000
  O   O48       1.0  0.93752  0.18206  0.18227  1.0000
  C   C157      1.0  0.41225  0.65660  0.59337  1.0000
  C   C158      1.0  0.91225  0.15660  0.09337  1.0000
  C   C159      1.0  0.45763  0.69342  0.63012  1.0000
  C   C160      1.0  0.95763  0.19342  0.13012  1.0000
  H   H27       1.0  0.42849  0.66578  0.55120  1.0000
  H   H28       1.0  0.92849  0.16578  0.05120  1.0000
  H   H29       1.0  0.42846  0.61444  0.60259  1.0000
  H   H30       1.0  0.92846  0.11444  0.10259  1.0000
  H   H31       1.0  0.34617  0.66234  0.59913  1.0000
  H   H32       1.0  0.84617  0.16234  0.09913  1.0000
  H   H33       1.0  0.52373  0.68773  0.62438  1.0000
  H   H34       1.0  0.02373  0.18773  0.12438  1.0000
  H   H35       1.0  0.44136  0.73557  0.62090  1.0000
  H   H36       1.0  0.94136  0.23557  0.12090  1.0000
  O   O49       1.0  0.99226  0.84750  0.30177  1.0000
  O   O50       1.0  0.49226  0.34750  0.80177  1.0000
  C   C161      1.0  0.94741  0.87710  0.38588  1.0000
  C   C162      1.0  0.44741  0.37710  0.88588  1.0000
  C   C163      1.0  0.00297  0.84032  0.35584  1.0000
  C   C164      1.0  0.50298  0.34032  0.85584  1.0000
  H   H37       1.0  0.95604  0.87131  0.42960  1.0000
  H   H38       1.0  0.45604  0.37131  0.92960  1.0000
  H   H39       1.0  0.96133  0.91928  0.37517  1.0000
  H   H40       1.0  0.46133  0.41928  0.87517  1.0000
  H   H41       1.0  0.88368  0.86793  0.37512  1.0000
  H   H42       1.0  0.38368  0.36793  0.87512  1.0000
  H   H43       1.0  0.06672  0.84945  0.36658  1.0000
  H   H44       1.0  0.56672  0.34945  0.86658  1.0000
  H   H45       1.0  0.98899  0.79816  0.36655  1.0000
  H   H46       1.0  0.48899  0.29816  0.86655  1.0000
  O   O51       1.0  0.72396  0.84750  0.84739  1.0000
  O   O52       1.0  0.22395  0.34750  0.34739  1.0000
  C   C165      1.0  0.74914  0.87302  0.93627  1.0000
  C   C166      1.0  0.24914  0.37302  0.43628  1.0000
  C   C167      1.0  0.70373  0.83622  0.89953  1.0000
  C   C168      1.0  0.20373  0.33621  0.39953  1.0000
  H   H47       1.0  0.73280  0.86392  0.97844  1.0000
  H   H48       1.0  0.23280  0.36392  0.47844  1.0000
  H   H49       1.0  0.81524  0.86727  0.93059  1.0000
  H   H50       1.0  0.31524  0.36727  0.43059  1.0000
  H   H51       1.0  0.73297  0.91517  0.92699  1.0000
  H   H52       1.0  0.23297  0.41517  0.42699  1.0000
  H   H53       1.0  0.71985  0.79406  0.90880  1.0000
  H   H54       1.0  0.21985  0.29406  0.40880  1.0000
  H   H55       1.0  0.63765  0.84202  0.90522  1.0000
  H   H56       1.0  0.13765  0.34202  0.40522  1.0000
  O   O53       1.0  0.72408  0.64864  0.64895  1.0000
  O   O54       1.0  0.22408  0.14864  0.14895  1.0000
  C   C169      1.0  0.81727  0.64153  0.57836  1.0000
  C   C170      1.0  0.31727  0.14153  0.07836  1.0000
  C   C171      1.0  0.77184  0.67833  0.61508  1.0000
  C   C172      1.0  0.27184  0.17833  0.11508  1.0000
  H   H57       1.0  0.85588  0.66552  0.55095  1.0000
  H   H58       1.0  0.35588  0.16552  0.05095  1.0000
  H   H59       1.0  0.85595  0.61424  0.60238  1.0000
  H   H60       1.0  0.35595  0.11424  0.10238  1.0000
  H   H61       1.0  0.77358  0.61759  0.55452  1.0000
  H   H62       1.0  0.27358  0.11758  0.05452  1.0000
  H   H63       1.0  0.81547  0.70231  0.63891  1.0000
  H   H64       1.0  0.31548  0.20231  0.13891  1.0000
  H   H65       1.0  0.73315  0.70559  0.59102  1.0000
  H   H66       1.0  0.23315  0.20559  0.09102  1.0000
  O   O55       1.0  0.56113  0.84750  0.84728  1.0000
  O   O56       1.0  0.06113  0.34750  0.34728  1.0000
  C   C173      1.0  0.43395  0.87720  0.87682  1.0000
  C   C174      1.0  0.93395  0.37720  0.37682  1.0000
  C   C175      1.0  0.47940  0.84038  0.84012  1.0000
  C   C176      1.0  0.97940  0.34038  0.34012  1.0000
  H   H67       1.0  0.36787  0.87146  0.87103  1.0000
  H   H68       1.0  0.86787  0.37146  0.37103  1.0000
  H   H69       1.0  0.45008  0.86808  0.91901  1.0000
  H   H70       1.0  0.95008  0.36808  0.41901  1.0000
  H   H71       1.0  0.45026  0.91934  0.86756  1.0000
  H   H72       1.0  0.95026  0.41934  0.36756  1.0000
  H   H73       1.0  0.46312  0.79823  0.84933  1.0000
  H   H74       1.0  0.96312  0.29823  0.34933  1.0000
  H   H75       1.0  0.46326  0.84954  0.79794  1.0000
  H   H76       1.0  0.96326  0.34954  0.29794  1.0000
  O   O57       1.0  0.56134  0.64859  0.64890  1.0000
  O   O58       1.0  0.06134  0.14859  0.14890  1.0000
  C   C177      1.0  0.53607  0.62313  0.56001  1.0000
  C   C178      1.0  0.03608  0.12313  0.06001  1.0000
  C   C179      1.0  0.58146  0.65995  0.59675  1.0000
  C   C180      1.0  0.08146  0.15995  0.09675  1.0000
  H   H77       1.0  0.55231  0.63231  0.51784  1.0000
  H   H78       1.0  0.05231  0.13231  0.01784  1.0000
  H   H79       1.0  0.55227  0.58097  0.56922  1.0000
  H   H80       1.0  0.05227  0.08097  0.06922  1.0000
  H   H81       1.0  0.46999  0.62888  0.56576  1.0000
  H   H82       1.0  0.96999  0.12888  0.06576  1.0000
  H   H83       1.0  0.64755  0.65425  0.59102  1.0000
  H   H84       1.0  0.14755  0.15425  0.09102  1.0000
  H   H85       1.0  0.56520  0.70209  0.58753  1.0000
  H   H86       1.0  0.06520  0.20209  0.08753  1.0000
  O   O59       1.0  0.24174  0.44585  0.68211  1.0000
  O   O60       1.0  0.74174  0.94585  0.18211  1.0000
  C   C181      1.0  0.28001  0.42922  0.59314  1.0000
  C   C182      1.0  0.78001  0.92922  0.09314  1.0000
  C   C183      1.0  0.22442  0.45916  0.62999  1.0000
  C   C184      1.0  0.72442  0.95916  0.12999  1.0000
  H   H87       1.0  0.26601  0.43996  0.55100  1.0000
  H   H88       1.0  0.76601  0.93996  0.05100  1.0000
  H   H89       1.0  0.34376  0.43999  0.60224  1.0000
  H   H90       1.0  0.84376  0.93999  0.10225  1.0000
  H   H91       1.0  0.27137  0.38549  0.59890  1.0000
  H   H92       1.0  0.77137  0.88549  0.09890  1.0000
  H   H93       1.0  0.23299  0.50289  0.62425  1.0000
  H   H94       1.0  0.73299  0.00289  0.12425  1.0000
  H   H95       1.0  0.16069  0.44835  0.62088  1.0000
  H   H96       1.0  0.66069  0.94835  0.12088  1.0000
  H   H97       1.0  0.05063  0.80879  0.44953  1.0000
  H   H98       1.0  0.55063  0.30879  0.94953  1.0000
  H   H99       1.0  0.84133  0.68733  0.68761  1.0000
  H   H100      1.0  0.34133  0.18733  0.18761  1.0000
  O   O61       1.0  0.99231  0.84756  0.19400  1.0000
  O   O62       1.0  0.49231  0.34756  0.69400  1.0000
  C   C185      1.0  0.98175  0.91819  0.13236  1.0000
  C   C186      1.0  0.48175  0.41819  0.63236  1.0000
  C   C187      1.0  0.03729  0.88139  0.16242  1.0000
  C   C188      1.0  0.53729  0.38139  0.66242  1.0000
  H   H101      1.0  0.01809  0.94556  0.10683  1.0000
  H   H102      1.0  0.51809  0.44556  0.60683  1.0000
  H   H103      1.0  0.94041  0.89423  0.10678  1.0000
  H   H104      1.0  0.44041  0.39423  0.60678  1.0000
  H   H105      1.0  0.94563  0.94206  0.16127  1.0000
  H   H106      1.0  0.44563  0.44206  0.66127  1.0000
  H   H107      1.0  0.07346  0.85751  0.13355  1.0000
  H   H108      1.0  0.57346  0.35751  0.63355  1.0000
  H   H109      1.0  0.07858  0.90538  0.18801  1.0000
  H   H110      1.0  0.57858  0.40538  0.68801  1.0000
  H   H111      1.0  0.23380  0.54913  0.68747  1.0000
  H   H112      1.0  0.73380  0.04913  0.18747  1.0000
  H   H113      1.0  0.05075  0.94754  0.80880  1.0000
  H   H114      1.0  0.55075  0.44754  0.30880  1.0000
  O   O63       1.0  0.29239  0.30222  0.64864  1.0000
  O   O64       1.0  0.79239  0.80222  0.14864  1.0000
  C   C189      1.0  0.39265  0.29655  0.58227  1.0000
  C   C190      1.0  0.89265  0.79655  0.08227  1.0000
  C   C191      1.0  0.33708  0.26649  0.61911  1.0000
  C   C192      1.0  0.83708  0.76649  0.11911  1.0000
  H   H115      1.0  0.42880  0.26767  0.55839  1.0000
  H   H116      1.0  0.92880  0.76767  0.05839  1.0000
  H   H117      1.0  0.35636  0.32210  0.55492  1.0000
  H   H118      1.0  0.85636  0.82210  0.05492  1.0000
  H   H119      1.0  0.43396  0.32213  0.60626  1.0000
  H   H120      1.0  0.93396  0.82213  0.10626  1.0000
  H   H121      1.0  0.29575  0.24088  0.59516  1.0000
  H   H122      1.0  0.79575  0.74088  0.09516  1.0000
  H   H123      1.0  0.37341  0.24098  0.64646  1.0000
  H   H124      1.0  0.87341  0.74098  0.14646  1.0000
  O   O65       1.0  0.29246  0.19462  0.64874  1.0000
  O   O66       1.0  0.79246  0.69462  0.14874  1.0000
  C   C193      1.0  0.39925  0.13307  0.64164  1.0000
  C   C194      1.0  0.89925  0.63307  0.14164  1.0000
  C   C195      1.0  0.34363  0.16306  0.67844  1.0000
  C   C196      1.0  0.84363  0.66306  0.17844  1.0000
  H   H125      1.0  0.44065  0.10756  0.66563  1.0000
  H   H126      1.0  0.94065  0.60756  0.16563  1.0000
  H   H127      1.0  0.36300  0.10747  0.61432  1.0000
  H   H128      1.0  0.86300  0.60747  0.11432  1.0000
  H   H129      1.0  0.43530  0.16202  0.61772  1.0000
  H   H130      1.0  0.93530  0.66202  0.11772  1.0000
  H   H131      1.0  0.30757  0.13415  0.70239  1.0000
  H   H132      1.0  0.80757  0.63415  0.20239  1.0000
  H   H133      1.0  0.37992  0.18867  0.70572  1.0000
  H   H134      1.0  0.87992  0.68867  0.20572  1.0000
  O   O67       1.0  0.24199  0.05100  0.68206  1.0000
  O   O68       1.0  0.74199  0.55100  0.18206  1.0000
  C   C197      1.0  0.34224  0.04533  0.61569  1.0000
  C   C198      1.0  0.84224  0.54533  0.11569  1.0000
  C   C199      1.0  0.28668  0.01527  0.65253  1.0000
  C   C200      1.0  0.78668  0.51527  0.15253  1.0000
  H   H135      1.0  0.37840  0.01646  0.59181  1.0000
  H   H136      1.0  0.87840  0.51646  0.09181  1.0000
  H   H137      1.0  0.30595  0.07088  0.58834  1.0000
  H   H138      1.0  0.80595  0.57088  0.08834  1.0000
  H   H139      1.0  0.38355  0.07092  0.63967  1.0000
  H   H140      1.0  0.88355  0.57092  0.13967  1.0000
  H   H141      1.0  0.24536  0.98966  0.62858  1.0000
  H   H142      1.0  0.74536  0.48966  0.12858  1.0000
  H   H143      1.0  0.32301  0.98976  0.67988  1.0000
  H   H144      1.0  0.82301  0.48976  0.17988  1.0000
  H   H145      1.0  0.05069  0.04659  0.80881  1.0000
  H   H146      1.0  0.55069  0.54659  0.30881  1.0000
  O   O69       1.0  0.24200  0.68225  0.05046  1.0000
  O   O70       1.0  0.74200  0.18225  0.55046  1.0000
  C   C201      1.0  0.34219  0.61589  0.04468  1.0000
  C   C202      1.0  0.84219  0.11589  0.54469  1.0000
  C   C203      1.0  0.28658  0.65269  0.01468  1.0000
  C   C204      1.0  0.78658  0.15269  0.51468  1.0000
  H   H147      1.0  0.37823  0.59198  0.01577  1.0000
  H   H148      1.0  0.87823  0.09198  0.51577  1.0000
  H   H149      1.0  0.38359  0.63986  0.07022  1.0000
  H   H150      1.0  0.88359  0.13986  0.57022  1.0000
  H   H151      1.0  0.30586  0.58857  0.07028  1.0000
  H   H152      1.0  0.80586  0.08857  0.57028  1.0000
  H   H153      1.0  0.32284  0.68002  0.98906  1.0000
  H   H154      1.0  0.82284  0.18002  0.48906  1.0000
  H   H155      1.0  0.24517  0.62869  0.98918  1.0000
  H   H156      1.0  0.74517  0.12869  0.48918  1.0000
  O   O71       1.0  0.99207  0.19445  0.84757  1.0000
  O   O72       1.0  0.49207  0.69445  0.34757  1.0000
  C   C205      1.0  0.89187  0.20013  0.91397  1.0000
  C   C206      1.0  0.39187  0.70013  0.41397  1.0000
  C   C207      1.0  0.94748  0.23019  0.87716  1.0000
  C   C208      1.0  0.44748  0.73019  0.37716  1.0000
  H   H157      1.0  0.85581  0.22901  0.93792  1.0000
  H   H158      1.0  0.35581  0.72901  0.43792  1.0000
  H   H159      1.0  0.85047  0.17458  0.89001  1.0000
  H   H160      1.0  0.35047  0.67458  0.39001  1.0000
  H   H161      1.0  0.92819  0.17455  0.94127  1.0000
  H   H162      1.0  0.42819  0.67455  0.44127  1.0000
  H   H163      1.0  0.91122  0.25579  0.84986  1.0000
  H   H164      1.0  0.41122  0.75579  0.34986  1.0000
  H   H165      1.0  0.98888  0.25571  0.90115  1.0000
  H   H166      1.0  0.48888  0.75571  0.40115  1.0000
  H   H167      1.0  0.23407  0.94772  0.68735  1.0000
  H   H168      1.0  0.73407  0.44772  0.18735  1.0000
  O   O73       1.0  0.99202  0.30203  0.84749  1.0000
  O   O74       1.0  0.49202  0.80203  0.34749  1.0000
  C   C209      1.0  0.88531  0.36364  0.85460  1.0000
  C   C210      1.0  0.38531  0.86364  0.35460  1.0000
  C   C211      1.0  0.94094  0.33366  0.81781  1.0000
  C   C212      1.0  0.44094  0.83366  0.31781  1.0000
  H   H169      1.0  0.84401  0.38923  0.83061  1.0000
  H   H170      1.0  0.34401  0.88923  0.33062  1.0000
  H   H171      1.0  0.84915  0.33473  0.87851  1.0000
  H   H172      1.0  0.34916  0.83473  0.37851  1.0000
  H   H173      1.0  0.92163  0.38918  0.88194  1.0000
  H   H174      1.0  0.42163  0.88918  0.38194  1.0000
  H   H175      1.0  0.90469  0.30812  0.79044  1.0000
  H   H176      1.0  0.40469  0.80812  0.29044  1.0000
  H   H177      1.0  0.97710  0.36260  0.79394  1.0000
  H   H178      1.0  0.47710  0.86260  0.29394  1.0000
  H   H179      1.0  0.05052  0.44988  0.80889  1.0000
  H   H180      1.0  0.55052  0.94988  0.30889  1.0000
  O   O75       1.0  0.04281  0.81409  0.55290  1.0000
  O   O76       1.0  0.54281  0.31409  0.05290  1.0000
  C   C213      1.0  0.03223  0.88465  0.61454  1.0000
  C   C214      1.0  0.53223  0.38465  0.11454  1.0000
  C   C215      1.0  0.08778  0.84784  0.58451  1.0000
  C   C216      1.0  0.58778  0.34784  0.08451  1.0000
  H   H181      1.0  0.06856  0.91194  0.64012  1.0000
  H   H182      1.0  0.56856  0.41194  0.14012  1.0000
  H   H183      1.0  0.99614  0.90859  0.58567  1.0000
  H   H184      1.0  0.49614  0.40859  0.08567  1.0000
  H   H185      1.0  0.99086  0.86063  0.64010  1.0000
  H   H186      1.0  0.49086  0.36063  0.14010  1.0000
  H   H187      1.0  0.12920  0.87182  0.55895  1.0000
  H   H188      1.0  0.62920  0.37182  0.05895  1.0000
  H   H189      1.0  0.12381  0.82390  0.61341  1.0000
  H   H190      1.0  0.62381  0.32390  0.11341  1.0000
  H   H191      1.0  0.05048  0.54894  0.80891  1.0000
  H   H192      1.0  0.55048  0.04894  0.30891  1.0000
  H   H193      1.0  0.28447  0.65404  0.19838  1.0000
  H   H194      1.0  0.78447  0.15404  0.69838  1.0000
  O   O77       1.0  0.29247  0.64875  0.30164  1.0000
  O   O78       1.0  0.79246  0.14875  0.80164  1.0000
  C   C217      1.0  0.39263  0.58238  0.29588  1.0000
  C   C218      1.0  0.89263  0.08238  0.79588  1.0000
  C   C219      1.0  0.33704  0.61918  0.26587  1.0000
  C   C220      1.0  0.83704  0.11918  0.76587  1.0000
  H   H195      1.0  0.42867  0.55845  0.26697  1.0000
  H   H196      1.0  0.92867  0.05846  0.76697  1.0000
  H   H197      1.0  0.43405  0.60634  0.32141  1.0000
  H   H198      1.0  0.93405  0.10634  0.82141  1.0000
  H   H199      1.0  0.35630  0.55506  0.32147  1.0000
  H   H200      1.0  0.85630  0.05506  0.82147  1.0000
  H   H201      1.0  0.37331  0.64650  0.24025  1.0000
  H   H202      1.0  0.87331  0.14650  0.74025  1.0000
  H   H203      1.0  0.29562  0.59518  0.24037  1.0000
  H   H204      1.0  0.79562  0.09518  0.74037  1.0000
  H   H205      1.0  0.23396  0.68745  0.44953  1.0000
  H   H206      1.0  0.73396  0.18745  0.94953  1.0000
  O   O79       1.0  0.24176  0.68212  0.55291  1.0000
  O   O80       1.0  0.74176  0.18212  0.05291  1.0000
  C   C221      1.0  0.25229  0.61154  0.61462  1.0000
  C   C222      1.0  0.75229  0.11154  0.11462  1.0000
  C   C223      1.0  0.19677  0.64836  0.58457  1.0000
  C   C224      1.0  0.69677  0.14836  0.08457  1.0000
  H   H207      1.0  0.21594  0.58425  0.64023  1.0000
  H   H208      1.0  0.71594  0.08425  0.14023  1.0000
  H   H209      1.0  0.28839  0.58760  0.58576  1.0000
  H   H210      1.0  0.78839  0.08760  0.08576  1.0000
  H   H211      1.0  0.29366  0.63555  0.64014  1.0000
  H   H212      1.0  0.79366  0.13555  0.14014  1.0000
  H   H213      1.0  0.15536  0.62439  0.55904  1.0000
  H   H214      1.0  0.65536  0.12439  0.05904  1.0000
  H   H215      1.0  0.16073  0.67230  0.61345  1.0000
  H   H216      1.0  0.66073  0.17230  0.11345  1.0000
