data_image0
_chemical_formula_structural       O14Cu4O2C16O2N2C2O2C20N2C22O4C8N4C4H8C2N2H2C2N2H2C2N2H6
_chemical_formula_sum              "O24 Cu4 C78 N14 H18"
_cell_length_a       11.7922
_cell_length_b       23.5324
_cell_length_c       10.2684
_cell_angle_alpha    89.9901
_cell_angle_beta     89.9996
_cell_angle_gamma    83.521

_space_group_name_H-M_alt    "P 1"
_space_group_IT_number       1

loop_
  _space_group_symop_operation_xyz
  'x, y, z'

loop_
  _atom_site_type_symbol
  _atom_site_label
  _atom_site_symmetry_multiplicity
  _atom_site_fract_x
  _atom_site_fract_y
  _atom_site_fract_z
  _atom_site_occupancy
  O   O1        1.0  0.50507  0.07805  0.89181  1.0000
  O   O2        1.0  0.00507  0.57805  0.39181  1.0000
  O   O3        1.0  0.17454  0.08610  0.89178  1.0000
  O   O4        1.0  0.67454  0.58610  0.39178  1.0000
  O   O5        1.0  0.34977  0.99920  0.89182  1.0000
  O   O6        1.0  0.84977  0.49921  0.39182  1.0000
  O   O7        1.0  0.32984  0.16495  0.89177  1.0000
  O   O8        1.0  0.82984  0.66495  0.39177  1.0000
  O   O9        1.0  0.34976  0.99920  0.10842  1.0000
  O   O10       1.0  0.84976  0.49920  0.60842  1.0000
  O   O11       1.0  0.17453  0.08610  0.10838  1.0000
  O   O12       1.0  0.67453  0.58610  0.60838  1.0000
  O   O13       1.0  0.50506  0.07805  0.10841  1.0000
  O   O14       1.0  0.00506  0.57805  0.60841  1.0000
  Cu  Cu1       1.0  0.33979  0.08207  0.12817  1.0000
  Cu  Cu2       1.0  0.83979  0.58207  0.62817  1.0000
  Cu  Cu3       1.0  0.33981  0.08208  0.87202  1.0000
  Cu  Cu4       1.0  0.83981  0.58208  0.37202  1.0000
  O   O15       1.0  0.32982  0.16495  0.10837  1.0000
  O   O16       1.0  0.82982  0.66495  0.60837  1.0000
  C   C1        1.0  0.13225  0.08559  0.00008  1.0000
  C   C2        1.0  0.63225  0.58559  0.50008  1.0000
  C   C3        1.0  0.00628  0.08408  0.00006  1.0000
  C   C4        1.0  0.50628  0.58408  0.50006  1.0000
  C   C5        1.0  0.77563  0.08130  0.00010  1.0000
  C   C6        1.0  0.27563  0.58130  0.50010  1.0000
  C   C7        1.0  0.90398  0.08284  0.00008  1.0000
  C   C8        1.0  0.40398  0.58284  0.50008  1.0000
  C   C9        1.0  0.34926  0.97798  0.00012  1.0000
  C   C10       1.0  0.84926  0.47798  0.50012  1.0000
  C   C11       1.0  0.34773  0.91476  0.00013  1.0000
  C   C12       1.0  0.84773  0.41476  0.50013  1.0000
  C   C13       1.0  0.44186  0.51621  0.00007  1.0000
  C   C14       1.0  0.94186  0.01621  0.50007  1.0000
  C   C15       1.0  0.44044  0.45680  0.00006  1.0000
  C   C16       1.0  0.94044  0.95680  0.50006  1.0000
  O   O17       1.0  0.52770  0.42058  0.00002  1.0000
  O   O18       1.0  0.02770  0.92058  0.50002  1.0000
  N   N1        1.0  0.33627  0.43356  0.00005  1.0000
  N   N2        1.0  0.83626  0.93356  0.50005  1.0000
  C   C17       1.0  0.23350  0.46973  0.00004  1.0000
  C   C18       1.0  0.73350  0.96973  0.50004  1.0000
  O   O19       1.0  0.14476  0.44450  0.00003  1.0000
  O   O20       1.0  0.64476  0.94450  0.50003  1.0000
  C   C19       1.0  0.23492  0.52914  0.00004  1.0000
  C   C20       1.0  0.73492  0.02914  0.50004  1.0000
  C   C21       1.0  0.33910  0.55238  0.00006  1.0000
  C   C22       1.0  0.83910  0.05238  0.50006  1.0000
  C   C23       1.0  0.54603  0.53945  0.00009  1.0000
  C   C24       1.0  0.04603  0.03945  0.50009  1.0000
  C   C25       1.0  0.54745  0.59886  0.00011  1.0000
  C   C26       1.0  0.04745  0.09886  0.50011  1.0000
  C   C27       1.0  0.44469  0.63502  0.00010  1.0000
  C   C28       1.0  0.94469  0.13502  0.50010  1.0000
  C   C29       1.0  0.34052  0.61178  0.00008  1.0000
  C   C30       1.0  0.84052  0.11178  0.50008  1.0000
  C   C31       1.0  0.13216  0.56530  0.00002  1.0000
  C   C32       1.0  0.63216  0.06530  0.50002  1.0000
  C   C33       1.0  0.13358  0.62472  0.00002  1.0000
  C   C34       1.0  0.63358  0.12471  0.50002  1.0000
  C   C35       1.0  0.23777  0.64795  0.00004  1.0000
  C   C36       1.0  0.73777  0.14796  0.50004  1.0000
  C   C37       1.0  0.23918  0.70735  0.00008  1.0000
  C   C38       1.0  0.73918  0.20735  0.50008  1.0000
  N   N3        1.0  0.34336  0.73059  0.00009  1.0000
  N   N4        1.0  0.84335  0.23059  0.50009  1.0000
  C   C39       1.0  0.44611  0.69443  0.00010  1.0000
  C   C40       1.0  0.94611  0.19443  0.50010  1.0000
  C   C41       1.0  0.23053  0.34497  0.00004  1.0000
  C   C42       1.0  0.73053  0.84497  0.50004  1.0000
  C   C43       1.0  0.22911  0.28556  0.00005  1.0000
  C   C44       1.0  0.72911  0.78556  0.50004  1.0000
  C   C45       1.0  0.43605  0.27264  0.00006  1.0000
  C   C46       1.0  0.93605  0.77264  0.50006  1.0000
  C   C47       1.0  0.43747  0.33205  0.00006  1.0000
  C   C48       1.0  0.93747  0.83205  0.50006  1.0000
  C   C49       1.0  0.33470  0.36821  0.00005  1.0000
  C   C50       1.0  0.83470  0.86821  0.50005  1.0000
  C   C51       1.0  0.44908  0.81918  0.00013  1.0000
  C   C52       1.0  0.94908  0.31918  0.50013  1.0000
  C   C53       1.0  0.45049  0.87859  0.00014  1.0000
  C   C54       1.0  0.95049  0.37859  0.50014  1.0000
  C   C55       1.0  0.24355  0.89151  0.00012  1.0000
  C   C56       1.0  0.74355  0.39151  0.50012  1.0000
  C   C57       1.0  0.24214  0.83210  0.00011  1.0000
  C   C58       1.0  0.74214  0.33210  0.50011  1.0000
  C   C59       1.0  0.34492  0.79594  0.00011  1.0000
  C   C60       1.0  0.84492  0.29594  0.50011  1.0000
  O   O21       1.0  0.15197  0.74361  0.00011  1.0000
  O   O22       1.0  0.65197  0.24361  0.50011  1.0000
  O   O23       1.0  0.53484  0.71966  0.00009  1.0000
  O   O24       1.0  0.03484  0.21966  0.50009  1.0000
  C   C61       1.0  0.54734  0.07856  0.00011  1.0000
  C   C62       1.0  0.04734  0.57856  0.50011  1.0000
  C   C63       1.0  0.67332  0.08007  0.00012  1.0000
  C   C64       1.0  0.17332  0.58007  0.50011  1.0000
  C   C65       1.0  0.33034  0.18617  0.00006  1.0000
  C   C66       1.0  0.83034  0.68617  0.50006  1.0000
  C   C67       1.0  0.33186  0.24939  0.00005  1.0000
  C   C68       1.0  0.83186  0.74939  0.50005  1.0000
  N   N5        1.0  0.33979  0.08207  0.30834  1.0000
  N   N6        1.0  0.83979  0.58207  0.80834  1.0000
  N   N7        1.0  0.33982  0.08208  0.69185  1.0000
  N   N8        1.0  0.83982  0.58208  0.19185  1.0000
  C   C69       1.0  0.33980  0.08208  0.57401  1.0000
  C   C70       1.0  0.83980  0.58208  0.07401  1.0000
  C   C71       1.0  0.33979  0.08207  0.42617  1.0000
  C   C72       1.0  0.83979  0.58207  0.92617  1.0000
  H   H1        1.0  0.53533  0.89751  0.00016  1.0000
  H   H2        1.0  0.03533  0.39751  0.50016  1.0000
  H   H3        1.0  0.14684  0.37441  0.00003  1.0000
  H   H4        1.0  0.64684  0.87441  0.50003  1.0000
  H   H5        1.0  0.52230  0.35097  0.00008  1.0000
  H   H6        1.0  0.02230  0.85097  0.50008  1.0000
  H   H7        1.0  0.62971  0.51001  0.00010  1.0000
  H   H8        1.0  0.12971  0.01001  0.50009  1.0000
  C   C73       1.0  0.54908  0.23285  0.00006  1.0000
  C   C74       1.0  0.04908  0.73285  0.50006  1.0000
  N   N9        1.0  0.63422  0.20288  0.00005  1.0000
  N   N10       1.0  0.13422  0.70288  0.50005  1.0000
  H   H9        1.0  0.53277  0.78975  0.00012  1.0000
  H   H10       1.0  0.03277  0.28975  0.50012  1.0000
  C   C75       1.0  0.01754  0.53975  0.99999  1.0000
  C   C76       1.0  0.51754  0.03975  0.49999  1.0000
  N   N11       1.0  0.93121  0.52051  0.99996  1.0000
  N   N12       1.0  0.43121  0.02051  0.49996  1.0000
  H   H11       1.0  0.04990  0.65416  0.00000  1.0000
  H   H12       1.0  0.54990  0.15416  0.50000  1.0000
  C   C77       1.0  0.66206  0.62441  0.00012  1.0000
  C   C78       1.0  0.16206  0.12441  0.50012  1.0000
  N   N13       1.0  0.74839  0.64366  0.00012  1.0000
  N   N14       1.0  0.24839  0.14366  0.50012  1.0000
  H   H13       1.0  0.14427  0.26665  0.00005  1.0000
  H   H14       1.0  0.64427  0.76665  0.50005  1.0000
  H   H15       1.0  0.15731  0.81318  0.00012  1.0000
  H   H16       1.0  0.65731  0.31318  0.50012  1.0000
  H   H17       1.0  0.15989  0.92096  0.00011  1.0000
  H   H18       1.0  0.65989  0.42096  0.50011  1.0000
