data_image0
_chemical_formula_structural       O14Zn4O2C8N4C104H2C2H6C2H12C2H14C2H12C2H10C2H6C2H6C2H6C2H6C2H8C2H8C2H14C2H6C2H6C2H10
_chemical_formula_sum              "O16 Zn4 C142 N4 H132"
_cell_length_a       18.3662
_cell_length_b       19.2889
_cell_length_c       19.2889
_cell_angle_alpha    96.8638
_cell_angle_beta     89.9885
_cell_angle_gamma    90.0229

_space_group_name_H-M_alt    "P 1"
_space_group_IT_number       1

loop_
  _space_group_symop_operation_xyz
  'x, y, z'

loop_
  _atom_site_type_symbol
  _atom_site_label
  _atom_site_symmetry_multiplicity
  _atom_site_fract_x
  _atom_site_fract_y
  _atom_site_fract_z
  _atom_site_occupancy
  O   O1        1.0  0.93921  0.07865  0.08665  1.0000
  O   O2        1.0  0.43921  0.57865  0.58665  1.0000
  O   O3        1.0  0.93926  0.28091  0.09834  1.0000
  O   O4        1.0  0.43926  0.78091  0.59834  1.0000
  O   O5        1.0  0.93925  0.17393  0.99136  1.0000
  O   O6        1.0  0.43925  0.67393  0.49136  1.0000
  O   O7        1.0  0.93922  0.18562  0.19362  1.0000
  O   O8        1.0  0.43922  0.68562  0.69362  1.0000
  O   O9        1.0  0.06034  0.17395  0.99136  1.0000
  O   O10       1.0  0.56034  0.67395  0.49136  1.0000
  O   O11       1.0  0.06036  0.28093  0.09833  1.0000
  O   O12       1.0  0.56036  0.78093  0.59833  1.0000
  O   O13       1.0  0.06031  0.07866  0.08664  1.0000
  O   O14       1.0  0.56031  0.57866  0.58664  1.0000
  Zn  Zn1       1.0  0.07956  0.17980  0.09249  1.0000
  Zn  Zn2       1.0  0.57956  0.67980  0.59249  1.0000
  Zn  Zn3       1.0  0.92001  0.17978  0.09249  1.0000
  Zn  Zn4       1.0  0.42001  0.67978  0.59249  1.0000
  O   O15       1.0  0.06032  0.18564  0.19362  1.0000
  O   O16       1.0  0.56032  0.68564  0.69362  1.0000
  C   C1        1.0  0.99981  0.30679  0.09796  1.0000
  C   C2        1.0  0.49981  0.80679  0.59796  1.0000
  C   C3        1.0  0.99983  0.38390  0.09683  1.0000
  C   C4        1.0  0.49983  0.88390  0.59683  1.0000
  C   C5        1.0  0.99980  0.17432  0.96548  1.0000
  C   C6        1.0  0.49980  0.67432  0.46548  1.0000
  C   C7        1.0  0.99981  0.17545  0.88838  1.0000
  C   C8        1.0  0.49980  0.67545  0.38838  1.0000
  N   N1        1.0  0.18845  0.17981  0.09248  1.0000
  N   N2        1.0  0.68845  0.67981  0.59248  1.0000
  N   N3        1.0  0.81112  0.17976  0.09249  1.0000
  N   N4        1.0  0.31111  0.67976  0.59249  1.0000
  C   C9        1.0  0.22655  0.13243  0.04514  1.0000
  C   C10       1.0  0.72655  0.63243  0.54514  1.0000
  C   C11       1.0  0.30277  0.13242  0.04513  1.0000
  C   C12       1.0  0.80277  0.63242  0.54513  1.0000
  C   C13       1.0  0.34090  0.17979  0.09249  1.0000
  C   C14       1.0  0.84090  0.67979  0.59249  1.0000
  C   C15       1.0  0.30280  0.22719  0.13984  1.0000
  C   C16       1.0  0.80280  0.72719  0.63984  1.0000
  C   C17       1.0  0.22657  0.22720  0.13983  1.0000
  C   C18       1.0  0.72657  0.72720  0.63983  1.0000
  C   C19       1.0  0.46166  0.18909  0.15577  1.0000
  C   C20       1.0  0.96166  0.68909  0.65577  1.0000
  C   C21       1.0  0.53788  0.18908  0.15578  1.0000
  C   C22       1.0  0.03788  0.68908  0.65578  1.0000
  C   C23       1.0  0.57601  0.17978  0.09250  1.0000
  C   C24       1.0  0.07601  0.67978  0.59250  1.0000
  C   C25       1.0  0.53790  0.17047  0.02921  1.0000
  C   C26       1.0  0.03791  0.67047  0.52921  1.0000
  C   C27       1.0  0.46168  0.17048  0.02920  1.0000
  C   C28       1.0  0.96168  0.67047  0.52920  1.0000
  C   C29       1.0  0.42356  0.17979  0.09250  1.0000
  C   C30       1.0  0.92356  0.67979  0.59250  1.0000
  C   C31       1.0  0.69676  0.13238  0.04514  1.0000
  C   C32       1.0  0.19676  0.63238  0.54514  1.0000
  C   C33       1.0  0.77299  0.13238  0.04514  1.0000
  C   C34       1.0  0.27299  0.63238  0.54514  1.0000
  C   C35       1.0  0.77301  0.22715  0.13985  1.0000
  C   C36       1.0  0.27301  0.72715  0.63985  1.0000
  C   C37       1.0  0.69679  0.22715  0.13985  1.0000
  C   C38       1.0  0.19679  0.72715  0.63985  1.0000
  C   C39       1.0  0.65866  0.17976  0.09249  1.0000
  C   C40       1.0  0.15866  0.67976  0.59249  1.0000
  C   C41       1.0  0.99975  0.05278  0.08702  1.0000
  C   C42       1.0  0.49975  0.55278  0.58702  1.0000
  C   C43       1.0  0.99973  0.97568  0.08815  1.0000
  C   C44       1.0  0.49973  0.47568  0.58815  1.0000
  C   C45       1.0  0.99981  0.42859  0.15960  1.0000
  C   C46       1.0  0.49981  0.92859  0.65960  1.0000
  C   C47       1.0  0.99981  0.50104  0.15854  1.0000
  C   C48       1.0  0.49980  0.00104  0.65854  1.0000
  C   C49       1.0  0.99980  0.52879  0.09470  1.0000
  C   C50       1.0  0.49980  0.02879  0.59471  1.0000
  C   C51       1.0  0.99983  0.48408  0.03193  1.0000
  C   C52       1.0  0.49983  0.98408  0.53193  1.0000
  C   C53       1.0  0.99984  0.41164  0.03299  1.0000
  C   C54       1.0  0.49984  0.91164  0.53299  1.0000
  C   C55       1.0  0.95736  0.63704  0.04453  1.0000
  C   C56       1.0  0.45736  0.13704  0.54453  1.0000
  C   C57       1.0  0.95734  0.70949  0.04347  1.0000
  C   C58       1.0  0.45734  0.20949  0.54347  1.0000
  C   C59       1.0  0.99976  0.75223  0.09143  1.0000
  C   C60       1.0  0.49976  0.25223  0.59142  1.0000
  C   C61       1.0  0.04219  0.72253  0.14045  1.0000
  C   C62       1.0  0.54219  0.22253  0.64045  1.0000
  C   C63       1.0  0.04220  0.65008  0.14152  1.0000
  C   C64       1.0  0.54220  0.15008  0.64152  1.0000
  C   C65       1.0  0.99979  0.60734  0.09355  1.0000
  C   C66       1.0  0.49979  0.10734  0.59355  1.0000
  C   C67       1.0  0.99973  0.87549  0.15305  1.0000
  C   C68       1.0  0.49973  0.37549  0.65305  1.0000
  C   C69       1.0  0.99973  0.94793  0.15198  1.0000
  C   C70       1.0  0.49973  0.44793  0.65198  1.0000
  C   C71       1.0  0.99974  0.93097  0.02537  1.0000
  C   C72       1.0  0.49974  0.43097  0.52537  1.0000
  C   C73       1.0  0.99975  0.85853  0.02644  1.0000
  C   C74       1.0  0.49975  0.35853  0.52644  1.0000
  C   C75       1.0  0.99974  0.83079  0.09028  1.0000
  C   C76       1.0  0.49974  0.33079  0.59028  1.0000
  C   C77       1.0  0.99979  0.11268  0.84368  1.0000
  C   C78       1.0  0.49979  0.61268  0.34368  1.0000
  C   C79       1.0  0.99978  0.11374  0.77124  1.0000
  C   C80       1.0  0.49978  0.61374  0.27124  1.0000
  C   C81       1.0  0.99980  0.17757  0.74349  1.0000
  C   C82       1.0  0.49980  0.67757  0.24349  1.0000
  C   C83       1.0  0.99980  0.24035  0.78819  1.0000
  C   C84       1.0  0.49980  0.74035  0.28819  1.0000
  C   C85       1.0  0.99981  0.23929  0.86064  1.0000
  C   C86       1.0  0.49981  0.73929  0.36064  1.0000
  C   C87       1.0  0.04223  0.22776  0.63520  1.0000
  C   C88       1.0  0.54223  0.72776  0.13520  1.0000
  C   C89       1.0  0.04223  0.22882  0.56276  1.0000
  C   C90       1.0  0.54223  0.72882  0.06276  1.0000
  C   C91       1.0  0.99978  0.18085  0.52004  1.0000
  C   C92       1.0  0.49978  0.68085  0.02004  1.0000
  C   C93       1.0  0.95734  0.13181  0.54978  1.0000
  C   C94       1.0  0.45734  0.63181  0.04978  1.0000
  C   C95       1.0  0.95735  0.13075  0.62223  1.0000
  C   C96       1.0  0.45735  0.63075  0.12223  1.0000
  C   C97       1.0  0.99979  0.17873  0.66494  1.0000
  C   C98       1.0  0.49979  0.67873  0.16493  1.0000
  C   C99       1.0  0.99976  0.11923  0.39679  1.0000
  C   C100      1.0  0.49976  0.61923  0.89679  1.0000
  C   C101      1.0  0.99974  0.12029  0.32434  1.0000
  C   C102      1.0  0.49974  0.62029  0.82434  1.0000
  C   C103      1.0  0.99977  0.24690  0.34130  1.0000
  C   C104      1.0  0.49977  0.74690  0.84130  1.0000
  C   C105      1.0  0.99978  0.24584  0.41375  1.0000
  C   C106      1.0  0.49978  0.74584  0.91375  1.0000
  C   C107      1.0  0.99977  0.18200  0.44149  1.0000
  C   C108      1.0  0.49977  0.68200  0.94149  1.0000
  C   C109      1.0  0.99977  0.18525  0.21950  1.0000
  C   C110      1.0  0.49977  0.68525  0.71950  1.0000
  C   C111      1.0  0.99975  0.18413  0.29660  1.0000
  C   C112      1.0  0.49975  0.68413  0.79660  1.0000
  H   H1        1.0  0.19551  0.09384  0.00658  1.0000
  H   H2        1.0  0.69551  0.59384  0.50658  1.0000
  C   C113      1.0  0.91065  0.07904  0.50281  1.0000
  C   C114      1.0  0.41065  0.57904  0.00281  1.0000
  H   H3        1.0  0.88538  0.04969  0.53090  1.0000
  H   H4        1.0  0.38538  0.54969  0.03090  1.0000
  H   H5        1.0  0.87654  0.10346  0.47777  1.0000
  H   H6        1.0  0.37654  0.60346  0.97777  1.0000
  H   H7        1.0  0.94124  0.05142  0.47079  1.0000
  H   H8        1.0  0.44124  0.55142  0.97079  1.0000
  C   C115      1.0  0.99974  0.04901  0.42731  1.0000
  C   C116      1.0  0.49974  0.54901  0.92731  1.0000
  H   H9        1.0  0.99976  0.05737  0.47686  1.0000
  H   H10       1.0  0.49976  0.55737  0.97686  1.0000
  H   H11       1.0  0.95751  0.02317  0.41197  1.0000
  H   H12       1.0  0.45751  0.52317  0.91197  1.0000
  H   H13       1.0  0.04197  0.02319  0.41194  1.0000
  H   H14       1.0  0.54197  0.52318  0.91194  1.0000
  H   H15       1.0  0.99981  0.40601  0.21158  1.0000
  H   H16       1.0  0.49980  0.90601  0.71158  1.0000
  H   H17       1.0  0.99979  0.53744  0.20965  1.0000
  H   H18       1.0  0.49979  0.03744  0.70965  1.0000
  H   H19       1.0  0.33380  0.09384  0.00658  1.0000
  H   H20       1.0  0.83380  0.59384  0.50658  1.0000
  C   C117      1.0  0.99985  0.36247  0.96394  1.0000
  C   C118      1.0  0.49985  0.86247  0.46394  1.0000
  H   H21       1.0  0.99985  0.38937  0.92577  1.0000
  H   H22       1.0  0.49985  0.88937  0.42577  1.0000
  H   H23       1.0  0.04209  0.33387  0.96172  1.0000
  H   H24       1.0  0.54209  0.83387  0.46172  1.0000
  H   H25       1.0  0.95762  0.33384  0.96173  1.0000
  H   H26       1.0  0.45762  0.83384  0.46173  1.0000
  H   H27       1.0  0.99973  0.06918  0.28795  1.0000
  H   H28       1.0  0.49973  0.56918  0.78795  1.0000
  H   H29       1.0  0.56890  0.19665  0.20731  1.0000
  H   H30       1.0  0.06890  0.69665  0.70731  1.0000
  H   H31       1.0  0.07676  0.62590  0.18144  1.0000
  H   H32       1.0  0.57676  0.12590  0.68144  1.0000
  H   H33       1.0  0.99979  0.06070  0.86626  1.0000
  H   H34       1.0  0.49979  0.56070  0.36626  1.0000
  C   C119      1.0  0.08891  0.28276  0.53005  1.0000
  C   C120      1.0  0.58891  0.78276  0.03005  1.0000
  H   H35       1.0  0.11418  0.31118  0.56586  1.0000
  H   H36       1.0  0.61418  0.81118  0.06586  1.0000
  H   H37       1.0  0.12302  0.25917  0.49856  1.0000
  H   H38       1.0  0.62302  0.75917  0.99856  1.0000
  H   H39       1.0  0.05832  0.31121  0.50555  1.0000
  H   H40       1.0  0.55832  0.81121  0.00555  1.0000
  H   H41       1.0  0.33385  0.26576  0.17839  1.0000
  H   H42       1.0  0.83385  0.76576  0.67839  1.0000
  H   H43       1.0  0.07673  0.75733  0.17951  1.0000
  H   H44       1.0  0.57673  0.25733  0.67951  1.0000
  H   H45       1.0  0.80406  0.26572  0.17840  1.0000
  H   H46       1.0  0.30406  0.76572  0.67840  1.0000
  C   C121      1.0  0.99982  0.51460  0.96171  1.0000
  C   C122      1.0  0.49982  0.01460  0.46172  1.0000
  H   H47       1.0  0.99980  0.56415  0.97007  1.0000
  H   H48       1.0  0.49980  0.06415  0.47007  1.0000
  H   H49       1.0  0.04205  0.49927  0.93588  1.0000
  H   H50       1.0  0.54205  0.99927  0.43588  1.0000
  H   H51       1.0  0.95759  0.49922  0.93588  1.0000
  H   H52       1.0  0.45759  0.99922  0.43588  1.0000
  H   H53       1.0  0.99982  0.29232  0.76560  1.0000
  H   H54       1.0  0.49981  0.79232  0.26560  1.0000
  H   H55       1.0  0.99977  0.06263  0.73484  1.0000
  H   H56       1.0  0.49977  0.56263  0.23484  1.0000
  C   C123      1.0  0.91066  0.07682  0.65494  1.0000
  C   C124      1.0  0.41066  0.57682  0.15494  1.0000
  H   H57       1.0  0.88538  0.04841  0.61913  1.0000
  H   H58       1.0  0.38538  0.54841  0.11913  1.0000
  H   H59       1.0  0.94124  0.04837  0.67944  1.0000
  H   H60       1.0  0.44124  0.54837  0.17944  1.0000
  H   H61       1.0  0.87655  0.10043  0.68643  1.0000
  H   H62       1.0  0.37655  0.60043  0.18643  1.0000
  C   C125      1.0  0.99978  0.31712  0.31079  1.0000
  C   C126      1.0  0.49978  0.81712  0.81079  1.0000
  H   H63       1.0  0.99978  0.30876  0.26124  1.0000
  H   H64       1.0  0.49978  0.80876  0.76124  1.0000
  H   H65       1.0  0.95756  0.34295  0.32616  1.0000
  H   H66       1.0  0.45756  0.84295  0.82616  1.0000
  H   H67       1.0  0.04203  0.34296  0.32613  1.0000
  H   H68       1.0  0.54203  0.84296  0.82614  1.0000
  C   C127      1.0  0.99973  0.84497  0.22326  1.0000
  C   C128      1.0  0.49973  0.34497  0.72327  1.0000
  H   H69       1.0  0.99973  0.88197  0.26050  1.0000
  H   H70       1.0  0.49973  0.38197  0.76050  1.0000
  H   H71       1.0  0.95750  0.81704  0.22631  1.0000
  H   H72       1.0  0.45750  0.31704  0.72631  1.0000
  H   H73       1.0  0.04197  0.81708  0.22631  1.0000
  H   H74       1.0  0.54197  0.31708  0.72631  1.0000
  C   C129      1.0  0.18467  0.27931  0.19192  1.0000
  C   C130      1.0  0.68467  0.77931  0.69192  1.0000
  H   H75       1.0  0.21829  0.30753  0.22013  1.0000
  H   H76       1.0  0.71829  0.80753  0.72013  1.0000
  H   H77       1.0  0.15495  0.30815  0.16701  1.0000
  H   H78       1.0  0.65495  0.80815  0.66701  1.0000
  H   H79       1.0  0.15491  0.25442  0.22077  1.0000
  H   H80       1.0  0.65491  0.75442  0.72077  1.0000
  C   C131      1.0  0.99971  0.99710  0.22103  1.0000
  C   C132      1.0  0.49971  0.49710  0.72103  1.0000
  H   H81       1.0  0.99970  0.97020  0.25920  1.0000
  H   H82       1.0  0.49970  0.47020  0.75920  1.0000
  H   H83       1.0  0.04193  0.02574  0.22325  1.0000
  H   H84       1.0  0.54193  0.52574  0.72325  1.0000
  H   H85       1.0  0.95747  0.02569  0.22325  1.0000
  H   H86       1.0  0.45746  0.52569  0.72325  1.0000
  H   H87       1.0  0.07680  0.26682  0.66997  1.0000
  H   H88       1.0  0.57680  0.76682  0.16997  1.0000
  C   C133      1.0  0.65482  0.08027  0.99305  1.0000
  C   C134      1.0  0.15482  0.58027  0.49305  1.0000
  H   H89       1.0  0.60397  0.08706  0.99984  1.0000
  H   H90       1.0  0.10397  0.58706  0.49984  1.0000
  H   H91       1.0  0.66733  0.08767  0.94672  1.0000
  H   H92       1.0  0.16733  0.58767  0.44672  1.0000
  H   H93       1.0  0.66729  0.03394  0.00048  1.0000
  H   H94       1.0  0.16729  0.53394  0.50048  1.0000
  H   H95       1.0  0.99982  0.29040  0.89703  1.0000
  H   H96       1.0  0.49982  0.79040  0.39703  1.0000
  C   C135      1.0  0.99973  0.96149  0.95516  1.0000
  C   C136      1.0  0.49973  0.46149  0.45516  1.0000
  H   H97       1.0  0.99972  0.01104  0.96352  1.0000
  H   H98       1.0  0.49972  0.51104  0.46352  1.0000
  H   H99       1.0  0.04197  0.94615  0.92932  1.0000
  H   H100      1.0  0.54197  0.44615  0.42932  1.0000
  H   H101      1.0  0.95750  0.94611  0.92933  1.0000
  H   H102      1.0  0.45750  0.44611  0.42933  1.0000
  H   H103      1.0  0.92278  0.73367  0.00355  1.0000
  H   H104      1.0  0.42278  0.23367  0.50355  1.0000
  H   H105      1.0  0.99979  0.29695  0.45014  1.0000
  H   H106      1.0  0.49979  0.79695  0.95014  1.0000
  H   H107      1.0  0.99976  0.82213  0.97533  1.0000
  H   H108      1.0  0.49976  0.32213  0.47533  1.0000
  H   H109      1.0  0.56895  0.16289  0.97768  1.0000
  H   H110      1.0  0.06895  0.66289  0.47768  1.0000
  C   C137      1.0  0.65488  0.27926  0.19193  1.0000
  C   C138      1.0  0.15488  0.77926  0.69193  1.0000
  H   H111      1.0  0.68850  0.30747  0.22014  1.0000
  H   H112      1.0  0.18850  0.80747  0.72014  1.0000
  H   H113      1.0  0.62516  0.30810  0.16702  1.0000
  H   H114      1.0  0.12516  0.80810  0.66702  1.0000
  H   H115      1.0  0.62513  0.25437  0.22079  1.0000
  H   H116      1.0  0.12512  0.75437  0.72079  1.0000
  C   C139      1.0  0.81490  0.08026  0.99306  1.0000
  C   C140      1.0  0.31490  0.58026  0.49306  1.0000
  H   H117      1.0  0.78127  0.05204  0.96486  1.0000
  H   H118      1.0  0.28127  0.55204  0.46486  1.0000
  H   H119      1.0  0.84465  0.10514  0.96420  1.0000
  H   H120      1.0  0.34465  0.60514  0.46420  1.0000
  H   H121      1.0  0.84461  0.05142  0.01798  1.0000
  H   H122      1.0  0.34461  0.55142  0.51798  1.0000
  C   C141      1.0  0.41972  0.19932  0.22539  1.0000
  C   C142      1.0  0.91972  0.69932  0.72539  1.0000
  H   H123      1.0  0.45333  0.20485  0.26308  1.0000
  H   H124      1.0  0.95333  0.70485  0.76308  1.0000
  H   H125      1.0  0.39000  0.23977  0.22690  1.0000
  H   H126      1.0  0.89001  0.73977  0.72690  1.0000
  H   H127      1.0  0.38997  0.15965  0.22914  1.0000
  H   H128      1.0  0.88997  0.65965  0.72914  1.0000
  H   H129      1.0  0.43066  0.16290  0.97767  1.0000
  H   H130      1.0  0.93066  0.66290  0.47767  1.0000
  H   H131      1.0  0.92281  0.60224  0.00547  1.0000
  H   H132      1.0  0.42281  0.10225  0.50547  1.0000
