data_image0
_chemical_formula_structural       Zn4O13C7N2CN2C32HOC2H7OC2H5OC2H6OC2H7OC2H6OC2H5OC2H5OC2H6OC2H5OC2H7
_chemical_formula_sum              "Zn4 O23 C60 N4 H60"
_cell_length_a       12.7594
_cell_length_b       21.2954
_cell_length_c       12.7594
_cell_angle_alpha    89.955
_cell_angle_beta     90.0302
_cell_angle_gamma    89.9664

_space_group_name_H-M_alt    "P 1"
_space_group_IT_number       1

loop_
  _space_group_symop_operation_xyz
  'x, y, z'

loop_
  _atom_site_type_symbol
  _atom_site_label
  _atom_site_symmetry_multiplicity
  _atom_site_fract_x
  _atom_site_fract_y
  _atom_site_fract_z
  _atom_site_occupancy
  Zn  Zn1       1.0  0.58231  0.03760  0.59473  1.0000
  Zn  Zn2       1.0  0.40659  0.03766  0.41906  1.0000
  Zn  Zn3       1.0  0.58220  0.14287  0.41899  1.0000
  Zn  Zn4       1.0  0.40661  0.14288  0.59462  1.0000
  O   O1        1.0  0.49443  0.09025  0.50685  1.0000
  O   O2        1.0  0.55903  0.94952  0.57151  1.0000
  O   O3        1.0  0.42983  0.05164  0.27203  1.0000
  O   O4        1.0  0.72923  0.12887  0.44233  1.0000
  O   O5        1.0  0.42993  0.94956  0.44244  1.0000
  O   O6        1.0  0.72931  0.05153  0.57144  1.0000
  O   O7        1.0  0.55884  0.12893  0.27198  1.0000
  O   O8        1.0  0.55887  0.23096  0.44221  1.0000
  O   O9        1.0  0.42998  0.12889  0.74165  1.0000
  O   O10       1.0  0.42987  0.23096  0.57125  1.0000
  O   O11       1.0  0.55906  0.05154  0.74174  1.0000
  O   O12       1.0  0.25957  0.05165  0.44233  1.0000
  O   O13       1.0  0.25959  0.12895  0.57131  1.0000
  C   C1        1.0  0.49436  0.25380  0.50671  1.0000
  C   C2        1.0  0.49430  0.32377  0.50667  1.0000
  C   C3        1.0  0.42704  0.35662  0.57376  1.0000
  C   C4        1.0  0.42707  0.42237  0.57380  1.0000
  C   C5        1.0  0.49434  0.45525  0.50674  1.0000
  C   C6        1.0  0.56161  0.42239  0.43965  1.0000
  C   C7        1.0  0.56160  0.35665  0.43962  1.0000
  N   N1        1.0  0.50252  0.55853  0.41483  1.0000
  N   N2        1.0  0.50253  0.62098  0.41486  1.0000
  C   C8        1.0  0.49439  0.65333  0.50682  1.0000
  N   N3        1.0  0.48622  0.62087  0.59875  1.0000
  N   N4        1.0  0.48620  0.55841  0.59872  1.0000
  C   C9        1.0  0.49436  0.52654  0.50676  1.0000
  C   C10       1.0  0.42715  0.75747  0.57395  1.0000
  C   C11       1.0  0.42718  0.82321  0.57400  1.0000
  C   C12       1.0  0.56172  0.82323  0.43984  1.0000
  C   C13       1.0  0.56170  0.75749  0.43980  1.0000
  C   C14       1.0  0.49440  0.72461  0.50686  1.0000
  C   C15       1.0  0.22146  0.09029  0.50684  1.0000
  C   C16       1.0  0.10468  0.09025  0.50686  1.0000
  C   C17       1.0  0.93996  0.13042  0.43962  1.0000
  C   C18       1.0  0.04969  0.13046  0.43960  1.0000
  C   C19       1.0  0.04995  0.04999  0.57416  1.0000
  C   C20       1.0  0.94022  0.04996  0.57419  1.0000
  C   C21       1.0  0.88498  0.17064  0.37234  1.0000
  C   C22       1.0  0.93971  0.21089  0.30504  1.0000
  C   C23       1.0  0.04943  0.21093  0.30502  1.0000
  C   C24       1.0  0.10443  0.17072  0.37230  1.0000
  C   C25       1.0  0.76846  0.09019  0.50689  1.0000
  C   C26       1.0  0.88524  0.09017  0.50691  1.0000
  C   C27       1.0  0.49453  0.09021  0.78089  1.0000
  C   C28       1.0  0.49458  0.09019  0.89766  1.0000
  C   C29       1.0  0.49447  0.92606  0.50696  1.0000
  C   C30       1.0  0.49445  0.85609  0.50693  1.0000
  C   C31       1.0  0.49440  0.09026  0.23388  1.0000
  C   C32       1.0  0.49465  0.09015  0.11711  1.0000
  C   C33       1.0  0.56180  0.04991  0.95257  1.0000
  C   C34       1.0  0.56183  0.04989  0.06229  1.0000
  C   C35       1.0  0.42743  0.13044  0.06219  1.0000
  C   C36       1.0  0.42739  0.13046  0.95247  1.0000
  C   C37       1.0  0.62898  0.00964  0.89776  1.0000
  C   C38       1.0  0.69620  0.96935  0.95267  1.0000
  C   C39       1.0  0.69624  0.96934  0.06239  1.0000
  C   C40       1.0  0.62906  0.00961  0.11721  1.0000
  H   H1        1.0  0.61646  0.73074  0.38517  1.0000
  O   O14       1.0  0.36194  0.72545  0.63915  1.0000
  C   C41       1.0  0.34763  0.65117  0.78097  1.0000
  C   C42       1.0  0.42159  0.68737  0.70719  1.0000
  H   H2        1.0  0.39583  0.62038  0.83602  1.0000
  H   H3        1.0  0.29276  0.62040  0.73269  1.0000
  H   H4        1.0  0.29954  0.68596  0.82889  1.0000
  H   H5        1.0  0.46975  0.65263  0.65926  1.0000
  H   H6        1.0  0.47640  0.71815  0.75554  1.0000
  H   H7        1.0  0.09399  0.24372  0.25023  1.0000
  H   H8        1.0  0.62895  0.00964  0.80842  1.0000
  O   O15       1.0  0.88613  0.24990  0.23973  1.0000
  C   C43       1.0  0.71698  0.28553  0.18016  1.0000
  C   C44       1.0  0.77753  0.24131  0.25416  1.0000
  H   H9        1.0  0.62917  0.27861  0.19183  1.0000
  H   H10       1.0  0.73844  0.27445  0.09545  1.0000
  H   H11       1.0  0.73853  0.33629  0.19849  1.0000
  H   H12       1.0  0.75601  0.19053  0.23594  1.0000
  H   H13       1.0  0.75606  0.25244  0.33886  1.0000
  O   O16       1.0  0.36158  0.32465  0.63876  1.0000
  C   C45       1.0  0.21975  0.25045  0.65263  1.0000
  C   C46       1.0  0.29380  0.28663  0.57890  1.0000
  H   H14       1.0  0.16495  0.21969  0.60427  1.0000
  H   H15       1.0  0.17161  0.28520  0.70057  1.0000
  H   H16       1.0  0.26795  0.21965  0.70766  1.0000
  H   H17       1.0  0.24569  0.31743  0.52381  1.0000
  H   H18       1.0  0.34195  0.25185  0.53103  1.0000
  H   H19       1.0  0.79564  0.17060  0.37234  1.0000
  O   O17       1.0  0.36167  0.45435  0.63882  1.0000
  C   C47       1.0  0.21978  0.52860  0.65273  1.0000
  C   C48       1.0  0.29379  0.49243  0.57898  1.0000
  H   H20       1.0  0.16486  0.55938  0.60437  1.0000
  H   H21       1.0  0.26789  0.55937  0.70775  1.0000
  H   H22       1.0  0.17173  0.49379  0.70067  1.0000
  H   H23       1.0  0.34185  0.52719  0.53096  1.0000
  H   H24       1.0  0.24561  0.46165  0.52402  1.0000
  H   H25       1.0  0.61639  0.44917  0.38505  1.0000
  H   H26       1.0  0.89566  0.01718  0.62899  1.0000
  O   O18       1.0  0.21101  0.17082  0.37212  1.0000
  C   C49       1.0  0.36833  0.21507  0.29832  1.0000
  C   C50       1.0  0.24762  0.21501  0.29840  1.0000
  H   H27       1.0  0.39797  0.25080  0.23874  1.0000
  H   H28       1.0  0.39827  0.16635  0.27657  1.0000
  H   H29       1.0  0.39811  0.22814  0.37968  1.0000
  H   H30       1.0  0.21775  0.20196  0.21707  1.0000
  H   H31       1.0  0.21776  0.26374  0.32021  1.0000
  H   H32       1.0  0.09473  0.01725  0.62894  1.0000
  O   O19       1.0  0.36173  0.85503  0.63919  1.0000
  C   C51       1.0  0.22831  0.84806  0.77228  1.0000
  C   C52       1.0  0.30236  0.81195  0.69848  1.0000
  H   H33       1.0  0.18030  0.81325  0.82025  1.0000
  H   H34       1.0  0.17338  0.87888  0.72401  1.0000
  H   H35       1.0  0.27650  0.87880  0.82727  1.0000
  H   H36       1.0  0.25425  0.78118  0.64347  1.0000
  H   H37       1.0  0.35730  0.78117  0.74682  1.0000
  O   O20       1.0  0.76137  0.93026  0.89926  1.0000
  C   C53       1.0  0.82094  0.89462  0.73028  1.0000
  C   C54       1.0  0.74706  0.93891  0.79062  1.0000
  H   H38       1.0  0.80941  0.90160  0.64243  1.0000
  H   H39       1.0  0.80252  0.84384  0.75181  1.0000
  H   H40       1.0  0.90565  0.90564  0.75192  1.0000
  H   H41       1.0  0.66233  0.92793  0.76901  1.0000
  H   H42       1.0  0.76557  0.98967  0.76908  1.0000
  O   O21       1.0  0.62694  0.85527  0.37470  1.0000
  C   C55       1.0  0.68658  0.95656  0.31528  1.0000
  C   C56       1.0  0.61266  0.92035  0.38909  1.0000
  H   H43       1.0  0.67508  0.00918  0.32691  1.0000
  H   H44       1.0  0.66819  0.94373  0.23051  1.0000
  H   H45       1.0  0.77128  0.94356  0.33382  1.0000
  H   H46       1.0  0.52794  0.93334  0.37065  1.0000
  H   H47       1.0  0.63114  0.93318  0.47384  1.0000
  H   H48       1.0  0.62911  0.00960  0.20655  1.0000
  O   O22       1.0  0.76158  0.93015  0.11557  1.0000
  C   C57       1.0  0.89493  0.85028  0.10408  1.0000
  C   C58       1.0  0.82098  0.89462  0.04373  1.0000
  H   H49       1.0  0.94299  0.82156  0.04603  1.0000
  H   H50       1.0  0.84677  0.81733  0.15544  1.0000
  H   H51       1.0  0.94983  0.87917  0.15547  1.0000
  H   H52       1.0  0.76606  0.86578  0.99230  1.0000
  H   H53       1.0  0.86920  0.92758  0.99244  1.0000
  O   O23       1.0  0.36212  0.16961  0.11528  1.0000
  C   C59       1.0  0.22875  0.24947  0.10360  1.0000
  C   C60       1.0  0.30267  0.20516  0.04336  1.0000
  H   H54       1.0  0.18065  0.27821  0.04548  1.0000
  H   H55       1.0  0.27694  0.28241  0.15492  1.0000
  H   H56       1.0  0.17389  0.22056  0.15501  1.0000
  H   H57       1.0  0.35755  0.23402  0.99189  1.0000
  H   H58       1.0  0.25442  0.17222  0.99209  1.0000
  H   H59       1.0  0.61637  0.32990  0.38499  1.0000
  H   H60       1.0  0.37267  0.16327  0.90776  1.0000
