data_image0
_chemical_formula_structural       O7Cu2OC28N2C10H2FH3F4H2F5H3F2
_chemical_formula_sum              "O8 Cu2 C38 N2 H10 F12"
_cell_length_a       14.9715
_cell_length_b       15.9446
_cell_length_c       13.4483
_cell_angle_alpha    89.9924
_cell_angle_beta     89.9982
_cell_angle_gamma    83.5564

_space_group_name_H-M_alt    "P 1"
_space_group_IT_number       1

loop_
  _space_group_symop_operation_xyz
  'x, y, z'

loop_
  _atom_site_type_symbol
  _atom_site_label
  _atom_site_symmetry_multiplicity
  _atom_site_fract_x
  _atom_site_fract_y
  _atom_site_fract_z
  _atom_site_occupancy
  O   O1        1.0  0.18683  0.10946  0.91742  1.0000
  O   O2        1.0  0.92641  0.12257  0.91739  1.0000
  O   O3        1.0  0.06373  0.99375  0.91742  1.0000
  O   O4        1.0  0.04951  0.23829  0.91740  1.0000
  O   O5        1.0  0.06372  0.99374  0.08280  1.0000
  O   O6        1.0  0.92640  0.12256  0.08278  1.0000
  O   O7        1.0  0.18681  0.10946  0.08280  1.0000
  Cu  Cu1       1.0  0.05660  0.11601  0.09789  1.0000
  Cu  Cu2       1.0  0.05662  0.11602  0.90231  1.0000
  O   O8        1.0  0.04949  0.23828  0.08278  1.0000
  C   C1        1.0  0.89308  0.12198  0.00008  1.0000
  C   C2        1.0  0.79379  0.12023  0.00007  1.0000
  C   C3        1.0  0.73648  0.19590  0.00007  1.0000
  C   C4        1.0  0.64318  0.19425  0.00008  1.0000
  C   C5        1.0  0.60719  0.11691  0.00009  1.0000
  C   C6        1.0  0.66451  0.04123  0.00010  1.0000
  C   C7        1.0  0.75780  0.04288  0.00009  1.0000
  C   C8        1.0  0.47005  0.03778  0.00012  1.0000
  C   C9        1.0  0.37675  0.03612  0.00012  1.0000
  C   C10       1.0  0.35543  0.18915  0.00010  1.0000
  C   C11       1.0  0.44872  0.19080  0.00010  1.0000
  C   C12       1.0  0.50603  0.11512  0.00010  1.0000
  C   C13       1.0  0.06313  0.96245  0.00011  1.0000
  C   C14       1.0  0.06136  0.86920  0.00011  1.0000
  C   C15       1.0  0.97202  0.65426  0.00009  1.0000
  C   C16       1.0  0.01350  0.59328  0.08163  1.0000
  C   C17       1.0  0.05816  0.69847  0.00010  1.0000
  C   C18       1.0  0.01354  0.59330  0.91858  1.0000
  C   C19       1.0  0.05506  0.53356  0.00009  1.0000
  C   C20       1.0  0.09967  0.63872  0.08172  1.0000
  C   C21       1.0  0.09969  0.63875  0.91859  1.0000
  C   C22       1.0  0.14124  0.57779  0.00016  1.0000
  C   C23       1.0  0.05994  0.79348  0.00011  1.0000
  C   C24       1.0  0.05329  0.43856  0.00009  1.0000
  C   C25       1.0  0.22015  0.11005  0.00011  1.0000
  C   C26       1.0  0.31944  0.11180  0.00012  1.0000
  C   C27       1.0  0.05009  0.26958  0.00009  1.0000
  C   C28       1.0  0.05186  0.36282  0.00008  1.0000
  N   N1        1.0  0.05659  0.11600  0.23546  1.0000
  N   N2        1.0  0.05664  0.11602  0.76474  1.0000
  C   C29       1.0  0.11742  0.05898  0.28751  1.0000
  C   C30       1.0  0.11742  0.05898  0.39161  1.0000
  C   C31       1.0  0.05661  0.11601  0.44366  1.0000
  C   C32       1.0  0.99578  0.17303  0.39160  1.0000
  C   C33       1.0  0.99577  0.17302  0.28750  1.0000
  C   C34       1.0  0.99580  0.17303  0.60858  1.0000
  C   C35       1.0  0.99581  0.17304  0.71269  1.0000
  C   C36       1.0  0.11746  0.05899  0.71269  1.0000
  C   C37       1.0  0.11745  0.05899  0.60859  1.0000
  C   C38       1.0  0.05662  0.11601  0.55654  1.0000
  H   H1        1.0  0.76577  0.25888  0.00006  1.0000
  H   H2        1.0  0.97710  0.57320  0.84963  1.0000
  F   F1        1.0  0.53104  0.95723  0.00013  1.0000
  H   H3        1.0  0.63520  0.97826  0.00013  1.0000
  H   H4        1.0  0.16694  0.01255  0.24513  1.0000
  H   H5        1.0  0.97705  0.57313  0.15057  1.0000
  F   F2        1.0  0.18220  0.99831  0.76809  1.0000
  F   F3        1.0  0.81879  0.96234  0.00010  1.0000
  F   F4        1.0  0.87856  0.69771  0.00018  1.0000
  F   F5        1.0  0.14724  0.66489  0.17193  1.0000
  H   H6        1.0  0.16697  0.01256  0.56621  1.0000
  H   H7        1.0  0.16695  0.01255  0.43399  1.0000
  F   F6        1.0  0.14729  0.66512  0.82848  1.0000
  F   F7        1.0  0.48702  0.27311  0.00007  1.0000
  F   F8        1.0  0.58220  0.27480  0.00007  1.0000
  F   F9        1.0  0.29444  0.26970  0.00010  1.0000
  F   F10       1.0  0.23478  0.53453  0.00022  1.0000
  H   H8        1.0  0.94629  0.21947  0.75506  1.0000
  H   H9        1.0  0.94624  0.21945  0.24512  1.0000
  H   H10       1.0  0.94626  0.21945  0.43399  1.0000
  F   F11       1.0  0.33845  0.95381  0.00016  1.0000
  F   F12       1.0  0.93106  0.23372  0.55319  1.0000
