data_image0
_chemical_formula_structural       O14Zn4O2C24N2C8N2C8H2C4H18
_chemical_formula_sum              "O16 Zn4 C44 N4 H20"
_cell_length_a       14.0442
_cell_length_b       14.0442
_cell_length_c       13.101
_cell_angle_alpha    86.3325
_cell_angle_beta     86.3401
_cell_angle_gamma    86.8111

_space_group_name_H-M_alt    "P 1"
_space_group_IT_number       1

loop_
  _space_group_symop_operation_xyz
  'x, y, z'

loop_
  _atom_site_type_symbol
  _atom_site_label
  _atom_site_symmetry_multiplicity
  _atom_site_fract_x
  _atom_site_fract_y
  _atom_site_fract_z
  _atom_site_occupancy
  O   O1        1.0  0.28197  0.77465  0.91489  1.0000
  O   O2        1.0  0.78197  0.27465  0.41489  1.0000
  O   O3        1.0  0.00530  0.78296  0.91487  1.0000
  O   O4        1.0  0.50530  0.28296  0.41486  1.0000
  O   O5        1.0  0.13948  0.91714  0.91489  1.0000
  O   O6        1.0  0.63948  0.41714  0.41489  1.0000
  O   O7        1.0  0.14779  0.64047  0.91487  1.0000
  O   O8        1.0  0.64779  0.14047  0.41487  1.0000
  O   O9        1.0  0.12985  0.90750  0.08532  1.0000
  O   O10       1.0  0.62985  0.40750  0.58532  1.0000
  O   O11       1.0  0.99567  0.77331  0.08529  1.0000
  O   O12       1.0  0.49567  0.27331  0.58529  1.0000
  O   O13       1.0  0.27234  0.76501  0.08532  1.0000
  O   O14       1.0  0.77234  0.26501  0.58532  1.0000
  Zn  Zn1       1.0  0.13248  0.76763  0.11237  1.0000
  Zn  Zn2       1.0  0.63248  0.26763  0.61237  1.0000
  Zn  Zn3       1.0  0.14516  0.78034  0.88782  1.0000
  Zn  Zn4       1.0  0.64516  0.28034  0.38782  1.0000
  O   O15       1.0  0.13816  0.63083  0.08530  1.0000
  O   O16       1.0  0.63816  0.13083  0.58530  1.0000
  C   C1        1.0  0.96486  0.78177  0.00008  1.0000
  C   C2        1.0  0.46486  0.28177  0.50008  1.0000
  C   C3        1.0  0.85872  0.79262  0.00007  1.0000
  C   C4        1.0  0.35872  0.29262  0.50007  1.0000
  C   C5        1.0  0.66438  0.81244  0.00009  1.0000
  C   C6        1.0  0.16438  0.31244  0.50009  1.0000
  C   C7        1.0  0.61325  0.73553  0.00009  1.0000
  C   C8        1.0  0.11325  0.23553  0.50009  1.0000
  C   C9        1.0  0.50512  0.74656  0.00010  1.0000
  C   C10       1.0  0.00512  0.24656  0.50010  1.0000
  C   C11       1.0  0.77253  0.80141  0.00008  1.0000
  C   C12       1.0  0.27253  0.30141  0.50008  1.0000
  C   C13       1.0  0.13103  0.94794  0.00010  1.0000
  C   C14       1.0  0.63103  0.44794  0.50010  1.0000
  C   C15       1.0  0.12019  0.05408  0.00010  1.0000
  C   C16       1.0  0.62019  0.55408  0.50010  1.0000
  C   C17       1.0  0.31278  0.76619  0.00011  1.0000
  C   C18       1.0  0.81278  0.26619  0.50011  1.0000
  C   C19       1.0  0.41892  0.75535  0.00011  1.0000
  C   C20       1.0  0.91892  0.25535  0.50011  1.0000
  C   C21       1.0  0.14661  0.60003  0.00008  1.0000
  C   C22       1.0  0.64661  0.10003  0.50008  1.0000
  C   C23       1.0  0.15745  0.49388  0.00007  1.0000
  C   C24       1.0  0.65746  0.99388  0.50007  1.0000
  N   N1        1.0  0.12383  0.75896  0.26561  1.0000
  N   N2        1.0  0.62383  0.25896  0.76561  1.0000
  C   C25       1.0  0.10036  0.24842  0.00009  1.0000
  C   C26       1.0  0.60036  0.74842  0.50009  1.0000
  C   C27       1.0  0.17728  0.29955  0.00009  1.0000
  C   C28       1.0  0.67728  0.79955  0.50009  1.0000
  C   C29       1.0  0.16624  0.40769  0.00008  1.0000
  C   C30       1.0  0.66625  0.90769  0.50008  1.0000
  C   C31       1.0  0.11139  0.14028  0.00010  1.0000
  C   C32       1.0  0.61139  0.64028  0.50009  1.0000
  N   N3        1.0  0.15382  0.78902  0.73457  1.0000
  N   N4        1.0  0.65382  0.28902  0.23457  1.0000
  C   C33       1.0  0.11207  0.74715  0.47465  1.0000
  C   C34       1.0  0.61207  0.24715  0.97465  1.0000
  C   C35       1.0  0.16558  0.80082  0.52554  1.0000
  C   C36       1.0  0.66558  0.30082  0.02554  1.0000
  C   C37       1.0  0.15903  0.79425  0.64185  1.0000
  C   C38       1.0  0.65903  0.29425  0.14186  1.0000
  C   C39       1.0  0.11861  0.75372  0.35833  1.0000
  C   C40       1.0  0.61861  0.25372  0.85833  1.0000
  H   H1        1.0  0.62694  0.88657  0.00010  1.0000
  H   H2        1.0  0.12695  0.38657  0.50010  1.0000
  C   C41       1.0  0.59554  0.56646  0.00006  1.0000
  C   C42       1.0  0.09554  0.06646  0.50006  1.0000
  C   C43       1.0  0.66379  0.63545  0.00007  1.0000
  C   C44       1.0  0.16379  0.13545  0.50007  1.0000
  H   H3        1.0  0.62674  0.50468  0.00006  1.0000
  H   H4        1.0  0.12674  0.00468  0.50006  1.0000
  H   H5        1.0  0.56014  0.57733  0.94064  1.0000
  H   H6        1.0  0.06014  0.07733  0.44064  1.0000
  H   H7        1.0  0.55345  0.57059  0.05951  1.0000
  H   H8        1.0  0.05345  0.07059  0.55951  1.0000
  H   H9        1.0  0.70587  0.63132  0.94062  1.0000
  H   H10       1.0  0.20587  0.13132  0.44062  1.0000
  H   H11       1.0  0.69920  0.62458  0.05949  1.0000
  H   H12       1.0  0.19920  0.12458  0.55949  1.0000
  H   H13       1.0  0.25141  0.26211  0.00003  1.0000
  H   H14       1.0  0.75141  0.76211  0.50003  1.0000
  H   H15       1.0  0.02624  0.28586  0.00008  1.0000
  H   H16       1.0  0.52624  0.78586  0.50008  1.0000
  H   H17       1.0  0.21631  0.85170  0.48174  1.0000
  H   H18       1.0  0.71631  0.35171  0.98174  1.0000
  H   H19       1.0  0.06134  0.69627  0.51844  1.0000
  H   H20       1.0  0.56134  0.19627  0.01844  1.0000
