data_image0
_chemical_formula_structural       O14Cu4O2C24N4C36N4C20N4H4N4H10N4H4N4H2N4H6N4H8N4H4N4H14
_chemical_formula_sum              "O16 Cu4 C80 N40 H52"
_cell_length_a       16.9927
_cell_length_b       17.0383
_cell_length_c       15.4553
_cell_angle_alpha    92.8584
_cell_angle_beta     87.1422
_cell_angle_gamma    90.8899

_space_group_name_H-M_alt    "P 1"
_space_group_IT_number       1

loop_
  _space_group_symop_operation_xyz
  'x, y, z'

loop_
  _atom_site_type_symbol
  _atom_site_label
  _atom_site_symmetry_multiplicity
  _atom_site_fract_x
  _atom_site_fract_y
  _atom_site_fract_z
  _atom_site_occupancy
  O   O1        1.0  0.05471  0.16326  0.92798  1.0000
  O   O2        1.0  0.55471  0.66326  0.42798  1.0000
  O   O3        1.0  0.82631  0.16144  0.92795  1.0000
  O   O4        1.0  0.32631  0.66144  0.42795  1.0000
  O   O5        1.0  0.93915  0.04845  0.92797  1.0000
  O   O6        1.0  0.43915  0.54845  0.42797  1.0000
  O   O7        1.0  0.94187  0.27625  0.92796  1.0000
  O   O8        1.0  0.44187  0.77625  0.42796  1.0000
  O   O9        1.0  0.93270  0.05488  0.07223  1.0000
  O   O10       1.0  0.43270  0.55488  0.57223  1.0000
  O   O11       1.0  0.81985  0.16787  0.07221  1.0000
  O   O12       1.0  0.31985  0.66787  0.57221  1.0000
  O   O13       1.0  0.04826  0.16970  0.07224  1.0000
  O   O14       1.0  0.54826  0.66970  0.57224  1.0000
  Cu  Cu1       1.0  0.93347  0.16937  0.08540  1.0000
  Cu  Cu2       1.0  0.43347  0.66937  0.58540  1.0000
  Cu  Cu3       1.0  0.94110  0.16176  0.91479  1.0000
  Cu  Cu4       1.0  0.44110  0.66176  0.41479  1.0000
  O   O15       1.0  0.93541  0.28268  0.07222  1.0000
  O   O16       1.0  0.43541  0.78268  0.57222  1.0000
  C   C1        1.0  0.79371  0.16230  0.00008  1.0000
  C   C2        1.0  0.29371  0.66230  0.50008  1.0000
  C   C3        1.0  0.70620  0.15529  0.00007  1.0000
  C   C4        1.0  0.20620  0.65529  0.50007  1.0000
  C   C5        1.0  0.66047  0.22293  0.00007  1.0000
  C   C6        1.0  0.16047  0.72293  0.50007  1.0000
  C   C7        1.0  0.57825  0.21634  0.00008  1.0000
  C   C8        1.0  0.07824  0.71634  0.50008  1.0000
  C   C9        1.0  0.54175  0.14211  0.00009  1.0000
  C   C10       1.0  0.04175  0.64211  0.50009  1.0000
  C   C11       1.0  0.58748  0.07447  0.00009  1.0000
  C   C12       1.0  0.08748  0.57447  0.50009  1.0000
  C   C13       1.0  0.66971  0.08106  0.00009  1.0000
  C   C14       1.0  0.16971  0.58106  0.50009  1.0000
  C   C15       1.0  0.29633  0.11479  0.00011  1.0000
  C   C16       1.0  0.79633  0.61479  0.50011  1.0000
  C   C17       1.0  0.21410  0.10820  0.00012  1.0000
  C   C18       1.0  0.71410  0.60820  0.50012  1.0000
  C   C19       1.0  0.20486  0.25008  0.00010  1.0000
  C   C20       1.0  0.70486  0.75008  0.50010  1.0000
  C   C21       1.0  0.28709  0.25666  0.00009  1.0000
  C   C22       1.0  0.78709  0.75667  0.50009  1.0000
  C   C23       1.0  0.33282  0.18902  0.00010  1.0000
  C   C24       1.0  0.83282  0.68902  0.50010  1.0000
  N   N1        1.0  0.45770  0.13537  0.00010  1.0000
  N   N2        1.0  0.95770  0.63537  0.50010  1.0000
  N   N3        1.0  0.41686  0.19576  0.00010  1.0000
  N   N4        1.0  0.91687  0.69576  0.50010  1.0000
  C   C25       1.0  0.93346  0.02238  0.00010  1.0000
  C   C26       1.0  0.43346  0.52238  0.50010  1.0000
  C   C27       1.0  0.92609  0.93513  0.00010  1.0000
  C   C28       1.0  0.42609  0.43513  0.50010  1.0000
  C   C29       1.0  0.99373  0.88926  0.00011  1.0000
  C   C30       1.0  0.49373  0.38926  0.50011  1.0000
  C   C31       1.0  0.98680  0.80727  0.00010  1.0000
  C   C32       1.0  0.48680  0.30727  0.50010  1.0000
  C   C33       1.0  0.91224  0.77116  0.00009  1.0000
  C   C34       1.0  0.41224  0.27116  0.50009  1.0000
  C   C35       1.0  0.84459  0.81704  0.00008  1.0000
  C   C36       1.0  0.34459  0.31704  0.50008  1.0000
  C   C37       1.0  0.85152  0.89902  0.00008  1.0000
  C   C38       1.0  0.35152  0.39902  0.50008  1.0000
  C   C39       1.0  0.88776  0.52387  0.00007  1.0000
  C   C40       1.0  0.38776  0.02387  0.50007  1.0000
  C   C41       1.0  0.88084  0.44188  0.00007  1.0000
  C   C42       1.0  0.38084  0.94188  0.50007  1.0000
  C   C43       1.0  0.02305  0.43212  0.00010  1.0000
  C   C44       1.0  0.52305  0.93212  0.50009  1.0000
  C   C45       1.0  0.02997  0.51410  0.00010  1.0000
  C   C46       1.0  0.52997  0.01410  0.50010  1.0000
  C   C47       1.0  0.96233  0.55997  0.00009  1.0000
  C   C48       1.0  0.46233  0.05997  0.50009  1.0000
  C   C49       1.0  0.90515  0.68736  0.00008  1.0000
  C   C50       1.0  0.40515  0.18736  0.50008  1.0000
  C   C51       1.0  0.96941  0.64377  0.00009  1.0000
  C   C52       1.0  0.46941  0.14377  0.50009  1.0000
  C   C53       1.0  0.08086  0.16883  0.00011  1.0000
  C   C54       1.0  0.58086  0.66883  0.50011  1.0000
  C   C55       1.0  0.16837  0.17584  0.00011  1.0000
  C   C56       1.0  0.66837  0.67584  0.50011  1.0000
  C   C57       1.0  0.94111  0.30875  0.00009  1.0000
  C   C58       1.0  0.44111  0.80875  0.50009  1.0000
  C   C59       1.0  0.94848  0.39601  0.00008  1.0000
  C   C60       1.0  0.44848  0.89601  0.50008  1.0000
  N   N5        1.0  0.92810  0.17472  0.20539  1.0000
  N   N6        1.0  0.42810  0.67472  0.70539  1.0000
  N   N7        1.0  0.94647  0.15641  0.79480  1.0000
  N   N8        1.0  0.44647  0.65641  0.29480  1.0000
  C   C61       1.0  0.97606  0.12674  0.25079  1.0000
  C   C62       1.0  0.47606  0.62674  0.75079  1.0000
  C   C63       1.0  0.97201  0.13079  0.34160  1.0000
  C   C64       1.0  0.47201  0.63079  0.84160  1.0000
  C   C65       1.0  0.92001  0.18284  0.38700  1.0000
  C   C66       1.0  0.42001  0.68284  0.88700  1.0000
  C   C67       1.0  0.87204  0.23082  0.34160  1.0000
  C   C68       1.0  0.37204  0.73082  0.84160  1.0000
  C   C69       1.0  0.87609  0.22676  0.25079  1.0000
  C   C70       1.0  0.37609  0.72676  0.75079  1.0000
  C   C71       1.0  0.90255  0.20033  0.65858  1.0000
  C   C72       1.0  0.40255  0.70033  0.15858  1.0000
  C   C73       1.0  0.89851  0.20439  0.74940  1.0000
  C   C74       1.0  0.39851  0.70439  0.24940  1.0000
  C   C75       1.0  0.99848  0.10436  0.74939  1.0000
  C   C76       1.0  0.49848  0.60437  0.24940  1.0000
  C   C77       1.0  0.00252  0.10031  0.65859  1.0000
  C   C78       1.0  0.50252  0.60031  0.15859  1.0000
  C   C79       1.0  0.95455  0.14829  0.61319  1.0000
  C   C80       1.0  0.45455  0.64829  0.11319  1.0000
  N   N9        1.0  0.91587  0.18698  0.47982  1.0000
  N   N10       1.0  0.41587  0.68698  0.97982  1.0000
  N   N11       1.0  0.95869  0.14414  0.52037  1.0000
  N   N12       1.0  0.45869  0.64414  0.02037  1.0000
  H   H1        1.0  0.04188  0.76993  0.00011  1.0000
  H   H2        1.0  0.54188  0.26993  0.50011  1.0000
  H   H3        1.0  0.82970  0.27319  0.37857  1.0000
  H   H4        1.0  0.32970  0.77319  0.87857  1.0000
  N   N13       1.0  0.34304  0.04570  0.00011  1.0000
  N   N14       1.0  0.84304  0.54570  0.50011  1.0000
  N   N15       1.0  0.41645  0.05159  0.00011  1.0000
  N   N16       1.0  0.91645  0.55159  0.50011  1.0000
  H   H5        1.0  0.44945  0.00279  0.00010  1.0000
  H   H6        1.0  0.94945  0.50279  0.50010  1.0000
  H   H7        1.0  0.54102  0.27142  0.00007  1.0000
  H   H8        1.0  0.04102  0.77142  0.50008  1.0000
  H   H9        1.0  0.01841  0.08437  0.21383  1.0000
  H   H10       1.0  0.51841  0.58437  0.71383  1.0000
  H   H11       1.0  0.83703  0.26583  0.21382  1.0000
  H   H12       1.0  0.33703  0.76583  0.71383  1.0000
  H   H13       1.0  0.03753  0.06530  0.78637  1.0000
  H   H14       1.0  0.53753  0.56530  0.28637  1.0000
  N   N17       1.0  0.32438  0.33249  0.00010  1.0000
  N   N18       1.0  0.82438  0.83249  0.50010  1.0000
  N   N19       1.0  0.39780  0.33836  0.00010  1.0000
  N   N20       1.0  0.89780  0.83836  0.50010  1.0000
  H   H15       1.0  0.42413  0.39191  0.00011  1.0000
  H   H16       1.0  0.92413  0.89191  0.50011  1.0000
  H   H17       1.0  0.16762  0.30515  0.00010  1.0000
  H   H18       1.0  0.66762  0.80515  0.50010  1.0000
  N   N21       1.0  0.84538  0.25754  0.79579  1.0000
  N   N22       1.0  0.34538  0.75753  0.29579  1.0000
  N   N23       1.0  0.84178  0.26115  0.87686  1.0000
  N   N24       1.0  0.34178  0.76115  0.37686  1.0000
  H   H19       1.0  0.80426  0.29868  0.90963  1.0000
  H   H20       1.0  0.30426  0.79868  0.40963  1.0000
  N   N25       1.0  0.02101  0.08178  0.38797  1.0000
  N   N26       1.0  0.52101  0.58178  0.88797  1.0000
  N   N27       1.0  0.06744  0.03532  0.34742  1.0000
  N   N28       1.0  0.56744  0.53532  0.84742  1.0000
  H   H21       1.0  0.10204  0.00069  0.38016  1.0000
  H   H22       1.0  0.60204  0.50069  0.88016  1.0000
  H   H23       1.0  0.07812  0.39477  0.00011  1.0000
  H   H24       1.0  0.57812  0.89477  0.50011  1.0000
  H   H25       1.0  0.18438  0.04775  0.00012  1.0000
  H   H26       1.0  0.68438  0.54775  0.50012  1.0000
  N   N29       1.0  0.85354  0.24934  0.61223  1.0000
  N   N30       1.0  0.35354  0.74934  0.11223  1.0000
  N   N31       1.0  0.80712  0.29580  0.65278  1.0000
  N   N32       1.0  0.30712  0.79580  0.15278  1.0000
  H   H27       1.0  0.77250  0.33042  0.62004  1.0000
  H   H28       1.0  0.27250  0.83042  0.12004  1.0000
  H   H29       1.0  0.04487  0.05794  0.62162  1.0000
  H   H30       1.0  0.54487  0.55794  0.12162  1.0000
  H   H31       1.0  0.03012  0.67318  0.00008  1.0000
  H   H32       1.0  0.53012  0.17318  0.50008  1.0000
  H   H33       1.0  0.83268  0.56120  0.00006  1.0000
  H   H34       1.0  0.33268  0.06120  0.50006  1.0000
  N   N33       1.0  0.55020  0.99864  0.00012  1.0000
  N   N34       1.0  0.05020  0.49864  0.50012  1.0000
  N   N35       1.0  0.50264  0.98185  0.06094  1.0000
  N   N36       1.0  0.00264  0.48185  0.56094  1.0000
  H   H35       1.0  0.47631  0.92829  0.06096  1.0000
  H   H36       1.0  0.97631  0.42829  0.56096  1.0000
  H   H37       1.0  0.70694  0.02598  0.00009  1.0000
  H   H38       1.0  0.20694  0.52598  0.50009  1.0000
  N   N37       1.0  0.80466  0.40499  0.00004  1.0000
  N   N38       1.0  0.30466  0.90499  0.50004  1.0000
  N   N39       1.0  0.78766  0.35762  0.93923  1.0000
  N   N40       1.0  0.28766  0.85762  0.43923  1.0000
  H   H39       1.0  0.73386  0.33157  0.93920  1.0000
  H   H40       1.0  0.23386  0.83157  0.43921  1.0000
  H   H41       1.0  0.05445  0.91866  0.00012  1.0000
  H   H42       1.0  0.55445  0.41866  0.50012  1.0000
  H   H43       1.0  0.69018  0.28338  0.00006  1.0000
  H   H44       1.0  0.19018  0.78338  0.50006  1.0000
  H   H45       1.0  0.78388  0.78763  0.00006  1.0000
  H   H46       1.0  0.28388  0.28763  0.50006  1.0000
  H   H47       1.0  0.09069  0.54350  0.00011  1.0000
  H   H48       1.0  0.59069  0.04350  0.50011  1.0000
  H   H49       1.0  0.79644  0.93637  0.00007  1.0000
  H   H50       1.0  0.29644  0.43637  0.50007  1.0000
  H   H51       1.0  0.84444  0.65795  0.00007  1.0000
  H   H52       1.0  0.34444  0.15795  0.50008  1.0000
