data_image0
_chemical_formula_structural       O7Zn2OC8ONCOC10NC11O2C2NC12NC12HOHOHOHOHOH2OH3OHOH2OH7OH4OH3OH
_chemical_formula_sum              "O24 Zn2 C56 N4 H28"
_cell_length_a       23.5324
_cell_length_b       17.6991
_cell_length_c       16.7762
_cell_angle_alpha    90.0075
_cell_angle_beta     89.9982
_cell_angle_gamma    96.9342

_space_group_name_H-M_alt    "P 1"
_space_group_IT_number       1

loop_
  _space_group_symop_operation_xyz
  'x, y, z'

loop_
  _atom_site_type_symbol
  _atom_site_label
  _atom_site_symmetry_multiplicity
  _atom_site_fract_x
  _atom_site_fract_y
  _atom_site_fract_z
  _atom_site_occupancy
  O   O1        1.0  0.75553  0.90812  0.93381  1.0000
  O   O2        1.0  0.58970  0.89483  0.93379  1.0000
  O   O3        1.0  0.67730  0.01169  0.93381  1.0000
  O   O4        1.0  0.66793  0.79126  0.93379  1.0000
  O   O5        1.0  0.67729  0.01169  0.06638  1.0000
  O   O6        1.0  0.58969  0.89483  0.06636  1.0000
  O   O7        1.0  0.75551  0.90813  0.06639  1.0000
  Zn  Zn1       1.0  0.67260  0.90148  0.08742  1.0000
  Zn  Zn2       1.0  0.67261  0.90147  0.91275  1.0000
  O   O8        1.0  0.66792  0.79127  0.06637  1.0000
  C   C1        1.0  0.56848  0.89517  0.00007  1.0000
  C   C2        1.0  0.50526  0.89619  0.00006  1.0000
  C   C3        1.0  0.67696  0.03989  0.00009  1.0000
  C   C4        1.0  0.67595  0.12390  0.00009  1.0000
  C   C5        1.0  0.66826  0.76307  0.00008  1.0000
  C   C6        1.0  0.66927  0.67906  0.00007  1.0000
  C   C7        1.0  0.10633  0.83342  0.00009  1.0000
  C   C8        1.0  0.04693  0.83436  0.00010  1.0000
  O   O9        1.0  0.01035  0.77617  0.00012  1.0000
  N   N1        1.0  0.02411  0.90383  0.00010  1.0000
  C   C9        1.0  0.06069  0.97237  0.00011  1.0000
  O   O10       1.0  0.03582  0.03154  0.00011  1.0000
  C   C10       1.0  0.12009  0.97142  0.00011  1.0000
  C   C11       1.0  0.14291  0.90194  0.00010  1.0000
  C   C12       1.0  0.12916  0.76394  0.00008  1.0000
  C   C13       1.0  0.18856  0.76300  0.00008  1.0000
  C   C14       1.0  0.22513  0.83152  0.00008  1.0000
  C   C15       1.0  0.20231  0.90100  0.00009  1.0000
  C   C16       1.0  0.15667  0.03995  0.00012  1.0000
  C   C17       1.0  0.21607  0.03900  0.00012  1.0000
  C   C18       1.0  0.23890  0.96952  0.00011  1.0000
  C   C19       1.0  0.29828  0.96858  0.00009  1.0000
  N   N2        1.0  0.32111  0.89911  0.00009  1.0000
  C   C20       1.0  0.28453  0.83058  0.00008  1.0000
  C   C21       1.0  0.93594  0.97435  0.00011  1.0000
  C   C22       1.0  0.87654  0.97530  0.00010  1.0000
  C   C23       1.0  0.86279  0.83729  0.00009  1.0000
  C   C24       1.0  0.92219  0.83634  0.00010  1.0000
  C   C25       1.0  0.95876  0.90487  0.00011  1.0000
  C   C26       1.0  0.40928  0.82860  0.00007  1.0000
  C   C27       1.0  0.46868  0.82766  0.00006  1.0000
  C   C28       1.0  0.48243  0.96567  0.00007  1.0000
  C   C29       1.0  0.42303  0.96661  0.00008  1.0000
  C   C30       1.0  0.38645  0.89807  0.00008  1.0000
  O   O11       1.0  0.33490  0.02674  0.00007  1.0000
  O   O12       1.0  0.30941  0.77141  0.00009  1.0000
  C   C31       1.0  0.77674  0.90779  0.00010  1.0000
  C   C32       1.0  0.83996  0.90677  0.00010  1.0000
  N   N3        1.0  0.67259  0.90149  0.20664  1.0000
  C   C33       1.0  0.72737  0.17278  0.00010  1.0000
  C   C34       1.0  0.72642  0.25172  0.00010  1.0000
  C   C35       1.0  0.67405  0.28177  0.00008  1.0000
  C   C36       1.0  0.62263  0.23289  0.00007  1.0000
  C   C37       1.0  0.62358  0.15395  0.00008  1.0000
  C   C38       1.0  0.61879  0.55123  0.00007  1.0000
  C   C39       1.0  0.61785  0.63017  0.00007  1.0000
  C   C40       1.0  0.72163  0.64900  0.00009  1.0000
  C   C41       1.0  0.72258  0.57006  0.00009  1.0000
  C   C42       1.0  0.67116  0.52118  0.00007  1.0000
  C   C43       1.0  0.67219  0.43559  0.00008  1.0000
  C   C44       1.0  0.67302  0.36737  0.00008  1.0000
  N   N4        1.0  0.67263  0.90147  0.79354  1.0000
  C   C45       1.0  0.71139  0.95321  0.24836  1.0000
  C   C46       1.0  0.71140  0.95321  0.33181  1.0000
  C   C47       1.0  0.67260  0.90149  0.37354  1.0000
  C   C48       1.0  0.63380  0.84976  0.33181  1.0000
  C   C49       1.0  0.63379  0.84976  0.24836  1.0000
  C   C50       1.0  0.63382  0.84974  0.66835  1.0000
  C   C51       1.0  0.63383  0.84974  0.75181  1.0000
  C   C52       1.0  0.71142  0.95320  0.75181  1.0000
  C   C53       1.0  0.71142  0.95320  0.66836  1.0000
  C   C54       1.0  0.67261  0.90148  0.62664  1.0000
  C   C55       1.0  0.67261  0.90148  0.53615  1.0000
  C   C56       1.0  0.67261  0.90148  0.46403  1.0000
  H   H1        1.0  0.37950  0.77279  0.00007  1.0000
  O   O13       1.0  0.56334  0.49851  0.00006  1.0000
  H   H2        1.0  0.56128  0.46210  0.05409  1.0000
  O   O14       1.0  0.97539  0.04827  0.00012  1.0000
  H   H3        1.0  0.00278  0.05114  0.94608  1.0000
  O   O15       1.0  0.21317  0.68806  0.00009  1.0000
  H   H4        1.0  0.17775  0.64058  0.00010  1.0000
  O   O16       1.0  0.75323  0.00902  0.20337  1.0000
  H   H5        1.0  0.72930  0.04564  0.16537  1.0000
  O   O17       1.0  0.78187  0.30445  0.00010  1.0000
  H   H6        1.0  0.78391  0.34087  0.05413  1.0000
  H   H7        1.0  0.40444  0.02318  0.00007  1.0000
  O   O18       1.0  0.75326  0.00899  0.37681  1.0000
  H   H8        1.0  0.74610  0.06795  0.36080  1.0000
  H   H9        1.0  0.85796  0.03187  0.00010  1.0000
  H   H10       1.0  0.24585  0.09481  0.00013  1.0000
  O   O19       1.0  0.49330  0.75272  0.00006  1.0000
  H   H11       1.0  0.45788  0.70523  0.00007  1.0000
  O   O20       1.0  0.08971  0.69003  0.00007  1.0000
  H   H12       1.0  0.11557  0.64157  0.00006  1.0000
  H   H13       1.0  0.74301  0.99532  0.63439  1.0000
  O   O21       1.0  0.56136  0.66259  0.00006  1.0000
  H   H14       1.0  0.55846  0.69811  0.94603  1.0000
  H   H15       1.0  0.58171  0.11415  0.00007  1.0000
  H   H16       1.0  0.94077  0.77977  0.00009  1.0000
  H   H17       1.0  0.76350  0.68881  0.00010  1.0000
  H   H18       1.0  0.13810  0.09653  0.00013  1.0000
  H   H19       1.0  0.57999  0.25736  0.00006  1.0000
  H   H20       1.0  0.60222  0.80763  0.63439  1.0000
  O   O22       1.0  0.52188  0.03957  0.00008  1.0000
  H   H21       1.0  0.51378  0.07284  0.05412  1.0000
  H   H22       1.0  0.74302  0.99532  0.78579  1.0000
  H   H23       1.0  0.77001  0.14832  0.00012  1.0000
  H   H24       1.0  0.76523  0.54560  0.00010  1.0000
  O   O23       1.0  0.59199  0.79394  0.79682  1.0000
  H   H25       1.0  0.56501  0.75797  0.75379  1.0000
  H   H26       1.0  0.83300  0.78149  0.00009  1.0000
  H   H27       1.0  0.60221  0.80764  0.36578  1.0000
  O   O24       1.0  0.59195  0.79397  0.20334  1.0000
  H   H28       1.0  0.56498  0.75799  0.24638  1.0000
