data_image0
_chemical_formula_structural       O7Cu2OC18NC4NC4H2ClH4Cl4H
_chemical_formula_sum              "O8 Cu2 C26 N2 H7 Cl5"
_cell_length_a       15.9954
_cell_length_b       14.5197
_cell_length_c       12.9965
_cell_angle_alpha    90.0071
_cell_angle_beta     90.0008
_cell_angle_gamma    96.4137

_space_group_name_H-M_alt    "P 1"
_space_group_IT_number       1

loop_
  _space_group_symop_operation_xyz
  'x, y, z'

loop_
  _atom_site_type_symbol
  _atom_site_label
  _atom_site_symmetry_multiplicity
  _atom_site_fract_x
  _atom_site_fract_y
  _atom_site_fract_z
  _atom_site_occupancy
  O   O1        1.0  0.11116  0.88113  0.91458  1.0000
  O   O2        1.0  0.86741  0.86645  0.91455  1.0000
  O   O3        1.0  0.99575  0.00804  0.91457  1.0000
  O   O4        1.0  0.98282  0.73953  0.91456  1.0000
  O   O5        1.0  0.99574  0.00804  0.08571  1.0000
  O   O6        1.0  0.86740  0.86645  0.08568  1.0000
  O   O7        1.0  0.11115  0.88113  0.08572  1.0000
  Cu  Cu1       1.0  0.98927  0.87379  0.10132  1.0000
  Cu  Cu2       1.0  0.98929  0.87379  0.89894  1.0000
  O   O8        1.0  0.98281  0.73954  0.08569  1.0000
  C   C1        1.0  0.83621  0.86706  0.00011  1.0000
  C   C2        1.0  0.74326  0.86888  0.00010  1.0000
  C   C3        1.0  0.99514  0.04240  0.00014  1.0000
  C   C4        1.0  0.99334  0.14478  0.00014  1.0000
  C   C5        1.0  0.14235  0.88052  0.00015  1.0000
  C   C6        1.0  0.23531  0.87870  0.00016  1.0000
  C   C7        1.0  0.57306  0.87217  0.00012  1.0000
  C   C8        1.0  0.52578  0.77133  0.00050  1.0000
  C   C9        1.0  0.42909  0.77315  0.00012  1.0000
  C   C10       1.0  0.40550  0.87541  0.00014  1.0000
  C   C11       1.0  0.44649  0.92514  0.90241  1.0000
  C   C12       1.0  0.54313  0.92261  0.90232  1.0000
  C   C13       1.0  0.54350  0.92470  0.09693  1.0000
  C   C14       1.0  0.44656  0.92468  0.09824  1.0000
  C   C15       1.0  0.31080  0.87725  0.00015  1.0000
  C   C16       1.0  0.66776  0.87033  0.00010  1.0000
  C   C17       1.0  0.98342  0.70518  0.00012  1.0000
  C   C18       1.0  0.98523  0.60280  0.00011  1.0000
  N   N1        1.0  0.98927  0.87380  0.24367  1.0000
  C   C19       1.0  0.98669  0.51966  0.00012  1.0000
  C   C20       1.0  0.98854  0.41535  0.00012  1.0000
  C   C21       1.0  0.99001  0.33222  0.00013  1.0000
  C   C22       1.0  0.99186  0.22791  0.00014  1.0000
  N   N2        1.0  0.98930  0.87379  0.75659  1.0000
  C   C23       1.0  0.98929  0.87378  0.66349  1.0000
  C   C24       1.0  0.98928  0.87379  0.54668  1.0000
  C   C25       1.0  0.98928  0.87379  0.45358  1.0000
  C   C26       1.0  0.98927  0.87379  0.33677  1.0000
  H   H1        1.0  0.40073  0.73405  0.07017  1.0000
  H   H2        1.0  0.43225  0.00027  0.89879  1.0000
  Cl  Cl1       1.0  0.55611  0.70937  0.89289  1.0000
  H   H3        1.0  0.41813  0.89062  0.82969  1.0000
  H   H4        1.0  0.54438  0.73103  0.07057  1.0000
  H   H5        1.0  0.40128  0.73379  0.92995  1.0000
  H   H6        1.0  0.56148  0.88633  0.82926  1.0000
  Cl  Cl2       1.0  0.59238  0.03948  0.09797  1.0000
  Cl  Cl3       1.0  0.59275  0.03691  0.89547  1.0000
  Cl  Cl4       1.0  0.57530  0.87381  0.21128  1.0000
  Cl  Cl5       1.0  0.40451  0.86862  0.20986  1.0000
  H   H7        1.0  0.43109  0.99925  0.10415  1.0000
