data_image0
_chemical_formula_structural       O7Zn2OC18NC28NHOC2H6OC2H5OC2H8OC2H5OC2H6OC2H6OC2H5OC2H6OC2H5OC2H5OC2H5OC2H5OC2H7OC2H5OC2H5OC2H7
_chemical_formula_sum              "O24 Zn2 C78 N2 H92"
_cell_length_a       15.9954
_cell_length_b       14.8536
_cell_length_c       13.9303
_cell_angle_alpha    90.0014
_cell_angle_beta     89.9963
_cell_angle_gamma    83.5637

_space_group_name_H-M_alt    "P 1"
_space_group_IT_number       1

loop_
  _space_group_symop_operation_xyz
  'x, y, z'

loop_
  _atom_site_type_symbol
  _atom_site_label
  _atom_site_symmetry_multiplicity
  _atom_site_fract_x
  _atom_site_fract_y
  _atom_site_fract_z
  _atom_site_occupancy
  O   O1        1.0  0.88888  0.88380  0.07974  1.0000
  O   O2        1.0  0.13263  0.86945  0.07976  1.0000
  O   O3        1.0  0.00424  0.00786  0.07975  1.0000
  O   O4        1.0  0.01727  0.74538  0.07975  1.0000
  O   O5        1.0  0.00426  0.00786  0.92009  1.0000
  O   O6        1.0  0.13265  0.86944  0.92010  1.0000
  O   O7        1.0  0.88889  0.88379  0.92008  1.0000
  Zn  Zn1       1.0  0.01078  0.87662  0.89474  1.0000
  Zn  Zn2       1.0  0.01075  0.87662  0.10510  1.0000
  O   O8        1.0  0.01728  0.74538  0.92009  1.0000
  C   C1        1.0  0.00484  0.04145  0.99992  1.0000
  C   C2        1.0  0.00661  0.14153  0.99993  1.0000
  C   C3        1.0  0.16384  0.87004  0.99993  1.0000
  C   C4        1.0  0.25679  0.87182  0.99994  1.0000
  C   C5        1.0  0.85769  0.88320  0.99991  1.0000
  C   C6        1.0  0.76474  0.88142  0.99991  1.0000
  C   C7        1.0  0.59455  0.87820  0.99992  1.0000
  C   C8        1.0  0.54723  0.97678  0.99957  1.0000
  C   C9        1.0  0.45054  0.97500  0.99993  1.0000
  C   C10       1.0  0.42698  0.87504  0.99993  1.0000
  C   C11       1.0  0.46800  0.82642  0.09110  1.0000
  C   C12       1.0  0.56464  0.82889  0.09117  1.0000
  C   C13       1.0  0.56500  0.82685  0.90960  1.0000
  C   C14       1.0  0.46805  0.82688  0.90841  1.0000
  C   C15       1.0  0.33228  0.87324  0.99994  1.0000
  C   C16       1.0  0.68925  0.88000  0.99992  1.0000
  C   C17       1.0  0.01668  0.71179  0.99992  1.0000
  C   C18       1.0  0.01492  0.61171  0.99991  1.0000
  N   N1        1.0  0.01079  0.87662  0.75117  1.0000
  C   C19       1.0  0.09035  0.55395  0.99992  1.0000
  C   C20       1.0  0.93782  0.57544  0.99991  1.0000
  C   C21       1.0  0.93616  0.48141  0.99992  1.0000
  C   C22       1.0  0.01159  0.42364  0.99992  1.0000
  C   C23       1.0  0.08869  0.45991  0.99992  1.0000
  C   C24       1.0  0.85906  0.44513  0.99990  1.0000
  C   C25       1.0  0.85740  0.35109  0.99991  1.0000
  C   C26       1.0  0.93283  0.29333  0.99992  1.0000
  C   C27       1.0  0.00993  0.32960  0.99992  1.0000
  C   C28       1.0  0.08537  0.27184  0.99993  1.0000
  C   C29       1.0  0.16247  0.30811  0.99994  1.0000
  C   C30       1.0  0.16413  0.40214  0.99994  1.0000
  C   C31       1.0  0.93118  0.19929  0.99993  1.0000
  C   C32       1.0  0.08371  0.17780  0.99994  1.0000
  C   C33       1.0  0.06163  0.93133  0.70091  1.0000
  C   C34       1.0  0.95994  0.82191  0.70093  1.0000
  C   C35       1.0  0.95993  0.82191  0.60043  1.0000
  C   C36       1.0  0.01077  0.87662  0.55017  1.0000
  C   C37       1.0  0.06162  0.93133  0.60041  1.0000
  C   C38       1.0  0.90907  0.76721  0.55018  1.0000
  C   C39       1.0  0.90906  0.76721  0.44968  1.0000
  C   C40       1.0  0.95990  0.82191  0.39942  1.0000
  C   C41       1.0  0.01076  0.87663  0.44967  1.0000
  C   C42       1.0  0.06159  0.93134  0.39941  1.0000
  C   C43       1.0  0.11245  0.98604  0.44965  1.0000
  C   C44       1.0  0.11246  0.98604  0.55015  1.0000
  C   C45       1.0  0.95989  0.82192  0.29892  1.0000
  C   C46       1.0  0.06159  0.93134  0.29890  1.0000
  N   N2        1.0  0.01073  0.87663  0.24867  1.0000
  H   H1        1.0  0.56580  0.01618  0.93418  1.0000
  O   O9        1.0  0.41681  0.02066  0.92194  1.0000
  C   C47       1.0  0.44314  0.10526  0.77961  1.0000
  C   C48       1.0  0.48144  0.05359  0.86791  1.0000
  H   H2        1.0  0.49539  0.13189  0.73589  1.0000
  H   H3        1.0  0.39658  0.16452  0.80418  1.0000
  H   H4        1.0  0.40911  0.05757  0.73336  1.0000
  H   H5        1.0  0.51552  0.10121  0.91419  1.0000
  H   H6        1.0  0.52797  0.99432  0.84327  1.0000
  H   H7        1.0  0.10299  0.97589  0.25799  1.0000
  O   O10       1.0  0.78258  0.31571  0.99987  1.0000
  C   C49       1.0  0.71241  0.18037  0.99995  1.0000
  C   C50       1.0  0.79721  0.22032  0.99996  1.0000
  H   H8        1.0  0.72421  0.10324  0.00005  1.0000
  H   H9        1.0  0.67512  0.20408  0.93311  1.0000
  H   H10       1.0  0.67513  0.20422  0.06675  1.0000
  H   H11       1.0  0.83456  0.19649  0.93321  1.0000
  H   H12       1.0  0.83443  0.19661  0.06684  1.0000
  O   O11       1.0  0.58934  0.86527  0.82705  1.0000
  C   C51       1.0  0.54539  0.93915  0.67853  1.0000
  C   C52       1.0  0.51774  0.89564  0.77198  1.0000
  H   H13       1.0  0.48752  0.96373  0.63398  1.0000
  H   H14       1.0  0.58785  0.88695  0.63571  1.0000
  H   H15       1.0  0.58129  0.99902  0.69673  1.0000
  H   H16       1.0  0.48181  0.83577  0.75385  1.0000
  H   H17       1.0  0.47534  0.94789  0.81476  1.0000
  H   H18       1.0  0.56686  0.01600  0.06459  1.0000
  H   H19       1.0  0.42271  0.01348  0.06540  1.0000
  H   H20       1.0  0.59680  0.75652  0.09530  1.0000
  O   O12       1.0  0.60265  0.74009  0.90890  1.0000
  C   C53       1.0  0.58340  0.58151  0.91096  1.0000
  C   C54       1.0  0.54066  0.67972  0.91178  1.0000
  H   H21       1.0  0.53330  0.53267  0.91327  1.0000
  H   H22       1.0  0.62622  0.56979  0.97624  1.0000
  H   H23       1.0  0.62233  0.56936  0.84268  1.0000
  H   H24       1.0  0.50169  0.69194  0.98001  1.0000
  H   H25       1.0  0.49789  0.69139  0.84645  1.0000
  O   O13       1.0  0.16177  0.03916  0.59910  1.0000
  C   C55       1.0  0.20687  0.08763  0.75393  1.0000
  C   C56       1.0  0.15098  0.02743  0.69860  1.0000
  H   H26       1.0  0.19817  0.07815  0.83438  1.0000
  H   H27       1.0  0.18827  0.16167  0.73424  1.0000
  H   H28       1.0  0.27559  0.06759  0.73411  1.0000
  H   H29       1.0  0.08224  0.04739  0.71840  1.0000
  H   H30       1.0  0.16964  0.95341  0.71829  1.0000
  H   H31       1.0  0.91854  0.77737  0.74185  1.0000
  O   O14       1.0  0.16182  0.03911  0.40068  1.0000
  C   C57       1.0  0.20688  0.08758  0.24584  1.0000
  C   C58       1.0  0.15095  0.02743  0.30119  1.0000
  H   H32       1.0  0.19810  0.07817  0.16539  1.0000
  H   H33       1.0  0.27562  0.06756  0.26556  1.0000
  H   H34       1.0  0.18827  0.16159  0.26561  1.0000
  H   H35       1.0  0.16949  0.95340  0.28145  1.0000
  H   H36       1.0  0.08222  0.04752  0.28146  1.0000
  H   H37       1.0  0.10304  0.97587  0.74183  1.0000
  O   O15       1.0  0.43405  0.86671  0.17198  1.0000
  C   C59       1.0  0.30833  0.90662  0.26498  1.0000
  C   C60       1.0  0.34666  0.86098  0.17334  1.0000
  H   H38       1.0  0.23767  0.90199  0.26613  1.0000
  H   H39       1.0  0.32031  0.98084  0.26598  1.0000
  H   H40       1.0  0.33864  0.87076  0.33072  1.0000
  H   H41       1.0  0.31638  0.89677  0.10755  1.0000
  H   H42       1.0  0.33469  0.78676  0.17243  1.0000
  O   O16       1.0  0.58668  0.87114  0.17244  1.0000
  C   C61       1.0  0.69931  0.92193  0.26567  1.0000
  C   C62       1.0  0.67448  0.87405  0.17360  1.0000
  H   H43       1.0  0.77029  0.92432  0.26663  1.0000
  H   H44       1.0  0.68001  0.88309  0.33114  1.0000
  H   H45       1.0  0.66599  0.99390  0.26738  1.0000
  H   H46       1.0  0.70779  0.80208  0.17180  1.0000
  H   H47       1.0  0.69376  0.91296  0.10818  1.0000
  H   H48       1.0  0.45379  0.75298  0.09449  1.0000
  O   O17       1.0  0.85634  0.16395  0.00005  1.0000
  C   C63       1.0  0.76591  0.07030  0.08278  1.0000
  C   C64       1.0  0.85070  0.11025  0.08276  1.0000
  H   H49       1.0  0.76132  0.02689  0.14966  1.0000
  H   H50       1.0  0.76132  0.02675  0.01602  1.0000
  H   H51       1.0  0.71229  0.12775  0.08273  1.0000
  H   H52       1.0  0.90437  0.05286  0.08285  1.0000
  H   H53       1.0  0.85522  0.15383  0.14952  1.0000
  O   O18       1.0  0.43552  0.86907  0.82786  1.0000
  C   C65       1.0  0.35944  0.85500  0.68031  1.0000
  C   C66       1.0  0.39627  0.80710  0.77148  1.0000
  H   H54       1.0  0.32768  0.80492  0.63471  1.0000
  H   H55       1.0  0.41213  0.88154  0.63728  1.0000
  H   H56       1.0  0.31119  0.91402  0.70151  1.0000
  H   H57       1.0  0.44451  0.74804  0.75037  1.0000
  H   H58       1.0  0.34352  0.78063  0.81449  1.0000
  O   O19       1.0  0.23567  0.25186  0.99999  1.0000
  C   C67       1.0  0.30070  0.09747  0.99993  1.0000
  C   C68       1.0  0.21774  0.16106  0.99990  1.0000
  H   H59       1.0  0.28623  0.02404  0.99984  1.0000
  H   H60       1.0  0.33863  0.11058  0.06677  1.0000
  H   H61       1.0  0.33864  0.11071  0.93313  1.0000
  H   H62       1.0  0.17973  0.14786  0.06665  1.0000
  H   H63       1.0  0.17987  0.14793  0.93302  1.0000
  O   O20       1.0  0.85976  0.71410  0.59915  1.0000
  C   C69       1.0  0.81467  0.66565  0.75399  1.0000
  C   C70       1.0  0.87057  0.72583  0.69865  1.0000
  H   H64       1.0  0.82337  0.67513  0.83444  1.0000
  H   H65       1.0  0.83324  0.59161  0.73429  1.0000
  H   H66       1.0  0.74595  0.68572  0.73419  1.0000
  H   H67       1.0  0.93930  0.70585  0.71842  1.0000
  H   H68       1.0  0.85193  0.79985  0.71835  1.0000
  O   O21       1.0  0.23895  0.43753  0.99990  1.0000
  C   C71       1.0  0.30910  0.57288  0.99994  1.0000
  C   C72       1.0  0.22431  0.53292  0.99997  1.0000
  H   H69       1.0  0.29729  0.65000  0.00002  1.0000
  H   H70       1.0  0.34640  0.54915  0.93311  1.0000
  H   H71       1.0  0.34637  0.54904  0.06674  1.0000
  H   H72       1.0  0.18696  0.55673  0.93321  1.0000
  H   H73       1.0  0.18707  0.55664  0.06684  1.0000
  H   H74       1.0  0.86765  0.72266  0.40878  1.0000
  H   H75       1.0  0.15313  0.58349  0.99993  1.0000
  O   O22       1.0  0.91047  0.76870  0.25027  1.0000
  C   C73       1.0  0.80956  0.66023  0.26089  1.0000
  C   C74       1.0  0.86551  0.72044  0.31611  1.0000
  H   H76       1.0  0.77317  0.62121  0.31410  1.0000
  H   H77       1.0  0.85063  0.61040  0.21385  1.0000
  H   H78       1.0  0.76340  0.70456  0.21382  1.0000
  H   H79       1.0  0.91167  0.67618  0.36323  1.0000
  H   H80       1.0  0.82438  0.77028  0.36309  1.0000
  O   O23       1.0  0.86457  0.63158  0.00007  1.0000
  C   C75       1.0  0.77794  0.75028  0.08274  1.0000
  C   C76       1.0  0.86092  0.68672  0.08269  1.0000
  H   H81       1.0  0.77498  0.79489  0.14952  1.0000
  H   H82       1.0  0.72252  0.70825  0.08280  1.0000
  H   H83       1.0  0.77493  0.79479  0.01589  1.0000
  H   H84       1.0  0.86402  0.64220  0.14953  1.0000
  H   H85       1.0  0.91631  0.72880  0.08258  1.0000
  O   O24       1.0  0.78587  0.50137  0.99993  1.0000
  C   C77       1.0  0.72083  0.65576  0.99986  1.0000
  C   C78       1.0  0.80379  0.59217  0.99985  1.0000
  H   H86       1.0  0.73530  0.72919  0.99977  1.0000
  H   H87       1.0  0.68287  0.64265  0.06668  1.0000
  H   H88       1.0  0.68291  0.64251  0.93305  1.0000
  H   H89       1.0  0.84178  0.60538  0.06662  1.0000
  H   H90       1.0  0.84169  0.60530  0.93298  1.0000
  H   H91       1.0  0.14514  0.13077  0.99995  1.0000
  H   H92       1.0  0.45260  0.75398  0.90290  1.0000
