data_image0
_chemical_formula_structural       O7Zn2OC18N2C10HClHClH2Cl2HClHCl3H2
_chemical_formula_sum              "O8 Zn2 C28 N2 H8 Cl8"
_cell_length_a       14.9715
_cell_length_b       9.06522
_cell_length_c       14.0482
_cell_angle_alpha    89.9954
_cell_angle_beta     89.9985
_cell_angle_gamma    84.315

_space_group_name_H-M_alt    "P 1"
_space_group_IT_number       1

loop_
  _space_group_symop_operation_xyz
  'x, y, z'

loop_
  _atom_site_type_symbol
  _atom_site_label
  _atom_site_symmetry_multiplicity
  _atom_site_fract_x
  _atom_site_fract_y
  _atom_site_fract_z
  _atom_site_occupancy
  O   O1        1.0  0.18838  0.19226  0.92095  1.0000
  O   O2        1.0  0.92815  0.21529  0.92093  1.0000
  O   O3        1.0  0.06364  0.98902  0.92094  1.0000
  O   O4        1.0  0.05289  0.41852  0.92094  1.0000
  O   O5        1.0  0.06363  0.98901  0.07926  1.0000
  O   O6        1.0  0.92814  0.21527  0.07925  1.0000
  O   O7        1.0  0.18836  0.19225  0.07927  1.0000
  Zn  Zn1       1.0  0.05825  0.20376  0.10440  1.0000
  Zn  Zn2       1.0  0.05827  0.20378  0.89580  1.0000
  O   O8        1.0  0.05287  0.41851  0.07926  1.0000
  C   C1        1.0  0.89481  0.21425  0.00008  1.0000
  C   C2        1.0  0.79549  0.21116  0.00007  1.0000
  C   C3        1.0  0.73926  0.34409  0.00007  1.0000
  C   C4        1.0  0.64594  0.34118  0.00009  1.0000
  C   C5        1.0  0.60885  0.20534  0.00010  1.0000
  C   C6        1.0  0.66509  0.07241  0.00010  1.0000
  C   C7        1.0  0.75841  0.07532  0.00009  1.0000
  C   C8        1.0  0.47058  0.06636  0.00011  1.0000
  C   C9        1.0  0.37726  0.06345  0.00012  1.0000
  C   C10       1.0  0.35811  0.33221  0.00011  1.0000
  C   C11       1.0  0.45143  0.33512  0.00010  1.0000
  C   C12       1.0  0.50766  0.20219  0.00010  1.0000
  C   C13       1.0  0.06260  0.93405  0.00010  1.0000
  C   C14       1.0  0.05951  0.77027  0.00010  1.0000
  C   C15       1.0  0.22170  0.19328  0.00012  1.0000
  C   C16       1.0  0.32102  0.19637  0.00012  1.0000
  C   C17       1.0  0.05391  0.47348  0.00010  1.0000
  C   C18       1.0  0.05700  0.63726  0.00010  1.0000
  N   N1        1.0  0.05824  0.20375  0.24676  1.0000
  N   N2        1.0  0.05828  0.20378  0.75344  1.0000
  C   C19       1.0  0.11825  0.10360  0.29658  1.0000
  C   C20       1.0  0.11826  0.10360  0.39624  1.0000
  C   C21       1.0  0.05825  0.20375  0.44607  1.0000
  C   C22       1.0  0.99823  0.30390  0.39624  1.0000
  C   C23       1.0  0.99822  0.30390  0.29658  1.0000
  C   C24       1.0  0.99826  0.30391  0.60396  1.0000
  C   C25       1.0  0.99827  0.30392  0.70362  1.0000
  C   C26       1.0  0.11830  0.10361  0.70361  1.0000
  C   C27       1.0  0.11829  0.10361  0.60396  1.0000
  C   C28       1.0  0.05826  0.20376  0.55413  1.0000
  H   H1        1.0  0.34707  0.95284  0.00013  1.0000
  Cl  Cl1       1.0  0.92283  0.42984  0.76625  1.0000
  H   H2        1.0  0.16715  0.02206  0.56338  1.0000
  Cl  Cl2       1.0  0.49805  0.50589  0.00008  1.0000
  H   H3        1.0  0.51637  0.95811  0.00012  1.0000
  H   H4        1.0  0.16712  0.02204  0.25602  1.0000
  Cl  Cl3       1.0  0.92280  0.42982  0.54132  1.0000
  Cl  Cl4       1.0  0.92279  0.42981  0.45888  1.0000
  H   H5        1.0  0.80420  0.96708  0.00009  1.0000
  Cl  Cl5       1.0  0.19371  0.97769  0.45888  1.0000
  H   H6        1.0  0.76944  0.45470  0.00007  1.0000
  Cl  Cl6       1.0  0.61847  0.90165  0.00012  1.0000
  Cl  Cl7       1.0  0.92277  0.42980  0.23395  1.0000
  Cl  Cl8       1.0  0.19375  0.97771  0.76625  1.0000
  H   H7        1.0  0.60015  0.44942  0.00009  1.0000
  H   H8        1.0  0.31232  0.44045  0.00011  1.0000
