data_image0
_chemical_formula_structural       O14Cu4O2C8N2C28N2C8H2N4H2N4H2N4H2N4H2N4H2
_chemical_formula_sum              "O16 Cu4 C44 N24 H12"
_cell_length_a       11.7923
_cell_length_b       14.4215
_cell_length_c       11.7923
_cell_angle_alpha    90.0051
_cell_angle_beta     84.1986
_cell_angle_gamma    89.9916

_space_group_name_H-M_alt    "P 1"
_space_group_IT_number       1

loop_
  _space_group_symop_operation_xyz
  'x, y, z'

loop_
  _atom_site_type_symbol
  _atom_site_label
  _atom_site_symmetry_multiplicity
  _atom_site_fract_x
  _atom_site_fract_y
  _atom_site_fract_z
  _atom_site_occupancy
  O   O1        1.0  0.50692  0.92289  0.15562  1.0000
  O   O2        1.0  0.00692  0.42289  0.65562  1.0000
  O   O3        1.0  0.17658  0.92289  0.17164  1.0000
  O   O4        1.0  0.67658  0.42289  0.67164  1.0000
  O   O5        1.0  0.34976  0.92289  0.99846  1.0000
  O   O6        1.0  0.84976  0.42289  0.49846  1.0000
  O   O7        1.0  0.33374  0.92288  0.32880  1.0000
  O   O8        1.0  0.83374  0.42288  0.82880  1.0000
  O   O9        1.0  0.34972  0.07712  0.99849  1.0000
  O   O10       1.0  0.84972  0.57712  0.49849  1.0000
  O   O11       1.0  0.17654  0.07711  0.17167  1.0000
  O   O12       1.0  0.67654  0.57711  0.67166  1.0000
  O   O13       1.0  0.50688  0.07711  0.15565  1.0000
  O   O14       1.0  0.00688  0.57711  0.65565  1.0000
  Cu  Cu1       1.0  0.34171  0.09119  0.16366  1.0000
  Cu  Cu2       1.0  0.84171  0.59119  0.66366  1.0000
  Cu  Cu3       1.0  0.34175  0.90881  0.16362  1.0000
  Cu  Cu4       1.0  0.84175  0.40881  0.66362  1.0000
  O   O15       1.0  0.33371  0.07710  0.32882  1.0000
  O   O16       1.0  0.83371  0.57710  0.82883  1.0000
  C   C1        1.0  0.13427  1.00000  0.17064  1.0000
  C   C2        1.0  0.63427  0.50000  0.67064  1.0000
  C   C3        1.0  0.00826  1.00000  0.16762  1.0000
  C   C4        1.0  0.50826  0.50000  0.66762  1.0000
  C   C5        1.0  0.90592  0.99999  0.16517  1.0000
  C   C6        1.0  0.40592  0.49999  0.66517  1.0000
  C   C7        1.0  0.77753  0.99999  0.16210  1.0000
  C   C8        1.0  0.27753  0.49999  0.66210  1.0000
  N   N1        1.0  0.34169  0.21947  0.16368  1.0000
  N   N2        1.0  0.84169  0.71947  0.66368  1.0000
  C   C9        1.0  0.26160  0.46912  0.24373  1.0000
  C   C10       1.0  0.76160  0.96912  0.74373  1.0000
  C   C11       1.0  0.36429  0.53093  0.26640  1.0000
  C   C12       1.0  0.86429  0.03093  0.76640  1.0000
  C   C13       1.0  0.34172  0.40864  0.16366  1.0000
  C   C14       1.0  0.84172  0.90864  0.66366  1.0000
  C   C15       1.0  0.23905  0.53093  0.14102  1.0000
  C   C16       1.0  0.73905  0.03093  0.64102  1.0000
  C   C17       1.0  0.34173  0.59136  0.16364  1.0000
  C   C18       1.0  0.84173  0.09136  0.66364  1.0000
  C   C19       1.0  0.44446  0.46908  0.18638  1.0000
  C   C20       1.0  0.94446  0.96908  0.68638  1.0000
  C   C21       1.0  0.31915  0.46907  0.06096  1.0000
  C   C22       1.0  0.81915  0.96907  0.56096  1.0000
  C   C23       1.0  0.42192  0.53085  0.08358  1.0000
  C   C24       1.0  0.92192  0.03085  0.58358  1.0000
  C   C25       1.0  0.34171  0.30337  0.16367  1.0000
  C   C26       1.0  0.84171  0.80337  0.66367  1.0000
  C   C27       1.0  0.34175  0.69662  0.16362  1.0000
  C   C28       1.0  0.84175  0.19662  0.66363  1.0000
  C   C29       1.0  0.54919  1.00000  0.15664  1.0000
  C   C30       1.0  0.04919  0.50000  0.65664  1.0000
  C   C31       1.0  0.67520  0.99999  0.15966  1.0000
  C   C32       1.0  0.17520  0.49999  0.65966  1.0000
  C   C33       1.0  0.34873  0.00001  0.95618  1.0000
  C   C34       1.0  0.84873  0.50001  0.45618  1.0000
  C   C35       1.0  0.34571  0.00001  0.83017  1.0000
  C   C36       1.0  0.84571  0.50001  0.33017  1.0000
  N   N3        1.0  0.34176  0.78053  0.16361  1.0000
  N   N4        1.0  0.84176  0.28052  0.66361  1.0000
  C   C37       1.0  0.34326  0.00000  0.72783  1.0000
  C   C38       1.0  0.84326  0.50000  0.22783  1.0000
  C   C39       1.0  0.34019  0.99999  0.59945  1.0000
  C   C40       1.0  0.84019  0.49999  0.09945  1.0000
  C   C41       1.0  0.33473  0.99999  0.37110  1.0000
  C   C42       1.0  0.83473  0.49999  0.87110  1.0000
  C   C43       1.0  0.33775  0.99999  0.49711  1.0000
  C   C44       1.0  0.83775  0.49999  0.99712  1.0000
  H   H1        1.0  0.38339  0.55810  0.35324  1.0000
  H   H2        1.0  0.88339  0.05810  0.85324  1.0000
  N   N5        1.0  0.55342  0.43513  0.21051  1.0000
  N   N6        1.0  0.05342  0.93513  0.71051  1.0000
  N   N7        1.0  0.57099  0.34977  0.21444  1.0000
  N   N8        1.0  0.07098  0.84977  0.71444  1.0000
  H   H3        1.0  0.64793  0.32579  0.23149  1.0000
  H   H4        1.0  0.14793  0.82579  0.73149  1.0000
  N   N9        1.0  0.50702  0.56466  0.99864  1.0000
  N   N10       1.0  0.00702  0.06466  0.49864  1.0000
  N   N11       1.0  0.52033  0.65000  0.98435  1.0000
  N   N12       1.0  0.02033  0.15000  0.48435  1.0000
  H   H5        1.0  0.58043  0.67388  0.92437  1.0000
  H   H6        1.0  0.08043  0.17388  0.42437  1.0000
  N   N13       1.0  0.29514  0.43497  0.95205  1.0000
  N   N14       1.0  0.79514  0.93497  0.45205  1.0000
  N   N15       1.0  0.20282  0.45475  0.91431  1.0000
  N   N16       1.0  0.70282  0.95475  0.41431  1.0000
  H   H7        1.0  0.18585  0.43067  0.83739  1.0000
  H   H8        1.0  0.68585  0.93067  0.33739  1.0000
  N   N17       1.0  0.13012  0.56503  0.11702  1.0000
  N   N18       1.0  0.63012  0.06503  0.61702  1.0000
  N   N19       1.0  0.07342  0.61575  0.18762  1.0000
  N   N20       1.0  0.57342  0.11575  0.68762  1.0000
  H   H9        1.0  0.99650  0.63984  0.17067  1.0000
  H   H10       1.0  0.49649  0.13983  0.67067  1.0000
  N   N21       1.0  0.17669  0.43513  0.32875  1.0000
  N   N22       1.0  0.67669  0.93513  0.82874  1.0000
  N   N23       1.0  0.18192  0.45499  0.43127  1.0000
  N   N24       1.0  0.68192  0.95499  0.93127  1.0000
  H   H11       1.0  0.12196  0.43098  0.49131  1.0000
  H   H12       1.0  0.62196  0.93098  0.99131  1.0000
