data_image0
_chemical_formula_structural       O7Cu2OC16N2C6HOCH3OCH3OCH4OCH3OCH3OCH5OCH4
_chemical_formula_sum              "O15 Cu2 C29 N2 H26"
_cell_length_a       10.6546
_cell_length_b       11.7922
_cell_length_c       9.13031
_cell_angle_alpha    89.9986
_cell_angle_beta     89.9962
_cell_angle_gamma    84.3392

_space_group_name_H-M_alt    "P 1"
_space_group_IT_number       1

loop_
  _space_group_symop_operation_xyz
  'x, y, z'

loop_
  _atom_site_type_symbol
  _atom_site_label
  _atom_site_symmetry_multiplicity
  _atom_site_fract_x
  _atom_site_fract_y
  _atom_site_fract_z
  _atom_site_occupancy
  O   O1        1.0  0.66738  0.15942  0.87808  1.0000
  O   O2        1.0  0.30186  0.17460  0.87810  1.0000
  O   O3        1.0  0.49349  0.00186  0.87810  1.0000
  O   O4        1.0  0.47575  0.33216  0.87808  1.0000
  O   O5        1.0  0.49349  0.00186  0.12170  1.0000
  O   O6        1.0  0.30186  0.17461  0.12170  1.0000
  O   O7        1.0  0.66738  0.15942  0.12168  1.0000
  Cu  Cu1       1.0  0.48462  0.16701  0.14393  1.0000
  Cu  Cu2       1.0  0.48462  0.16701  0.85585  1.0000
  O   O8        1.0  0.47575  0.33216  0.12168  1.0000
  C   C1        1.0  0.25507  0.17349  0.99991  1.0000
  C   C2        1.0  0.11563  0.17015  0.99991  1.0000
  C   C3        1.0  0.03586  0.27186  0.99989  1.0000
  C   C4        1.0  0.90485  0.26872  0.99986  1.0000
  C   C5        1.0  0.93339  0.06215  0.99989  1.0000
  C   C6        1.0  0.06440  0.06530  0.99992  1.0000
  C   C7        1.0  0.01938  0.39112  0.99987  1.0000
  C   C8        1.0  0.88836  0.38798  0.99984  1.0000
  C   C9        1.0  0.49238  0.95957  0.99990  1.0000
  C   C10       1.0  0.48904  0.83355  0.99990  1.0000
  C   C11       1.0  0.48291  0.60282  0.99987  1.0000
  C   C12       1.0  0.48632  0.73121  0.99989  1.0000
  C   C13       1.0  0.71418  0.16053  0.99987  1.0000
  C   C14       1.0  0.85361  0.16387  0.99985  1.0000
  C   C15       1.0  0.47687  0.37445  0.99988  1.0000
  C   C16       1.0  0.48020  0.50048  0.99987  1.0000
  N   N1        1.0  0.48463  0.16702  0.34656  1.0000
  N   N2        1.0  0.48463  0.16700  0.65323  1.0000
  C   C17       1.0  0.56950  0.09055  0.42321  1.0000
  C   C18       1.0  0.56950  0.09054  0.57654  1.0000
  C   C19       1.0  0.39974  0.24347  0.57656  1.0000
  C   C20       1.0  0.39974  0.24347  0.42323  1.0000
  C   C21       1.0  0.66752  0.00227  0.42319  1.0000
  C   C22       1.0  0.66751  0.00225  0.57653  1.0000
  H   H1        1.0  0.33062  0.30573  0.36082  1.0000
  O   O9        1.0  0.88342  0.96039  0.99982  1.0000
  C   C23       1.0  0.75068  0.97943  0.99982  1.0000
  H   H2        1.0  0.72053  0.06776  0.95369  1.0000
  H   H3        1.0  0.71002  0.91227  0.92910  1.0000
  H   H4        1.0  0.71415  0.97364  0.11668  1.0000
  O   O10       1.0  0.05443  0.44678  0.12138  1.0000
  C   C24       1.0  0.18639  0.44982  0.12120  1.0000
  H   H5        1.0  0.22335  0.43958  0.00430  1.0000
  H   H6        1.0  0.21046  0.53488  0.16727  1.0000
  H   H7        1.0  0.23206  0.37745  0.19190  1.0000
  O   O11       1.0  0.14195  0.96653  0.00022  1.0000
  C   C25       1.0  0.21857  0.96219  0.12638  1.0000
  H   H8        1.0  0.17097  0.01986  0.21454  1.0000
  H   H9        1.0  0.23268  0.87088  0.16875  1.0000
  H   H10       1.0  0.31404  0.99232  0.09788  1.0000
  H   H11       1.0  0.84650  0.43292  0.89789  1.0000
  O   O12       1.0  0.06171  0.43662  0.87448  1.0000
  C   C26       1.0  0.00514  0.54912  0.85800  1.0000
  H   H12       1.0  0.97322  0.58449  0.96958  1.0000
  H   H13       1.0  0.07636  0.60442  0.80891  1.0000
  H   H14       1.0  0.92010  0.54940  0.78217  1.0000
  O   O13       1.0  0.64200  0.89824  0.37362  1.0000
  C   C27       1.0  0.52270  0.87434  0.42526  1.0000
  H   H15       1.0  0.46359  0.95756  0.45251  1.0000
  H   H16       1.0  0.47304  0.82684  0.33713  1.0000
  H   H17       1.0  0.53498  0.81930  0.52789  1.0000
  O   O14       1.0  0.83392  0.43087  0.12545  1.0000
  C   C28       1.0  0.88377  0.36651  0.24589  1.0000
  H   H18       1.0  0.98022  0.32214  0.21572  1.0000
  H   H19       1.0  0.89385  0.42543  0.34327  1.0000
  H   H20       1.0  0.81755  0.29991  0.27608  1.0000
  H   H21       1.0  0.33063  0.30571  0.63901  1.0000
  H   H22       1.0  0.75862  0.02991  0.37563  1.0000
  O   O15       1.0  0.63120  0.90399  0.63333  1.0000
  C   C29       1.0  0.52259  0.92894  0.72023  1.0000
  H   H23       1.0  0.47144  0.01388  0.68443  1.0000
  H   H24       1.0  0.45727  0.85872  0.70639  1.0000
  H   H25       1.0  0.55122  0.93438  0.84014  1.0000
  H   H26       1.0  0.76397  0.02170  0.61814  1.0000
