data_image0
_chemical_formula_structural       O21Zn6O3C90N6C12N6C48H3F3H3F3H3F9H3F3H3F6H6F9H3F3H9F3H6F9H6F3
_chemical_formula_sum              "O24 Zn6 C150 N12 H45 F51"
_cell_length_a       19.2889
_cell_length_b       16.9927
_cell_length_c       18.3662
_cell_angle_alpha    89.9938
_cell_angle_beta     89.9771
_cell_angle_gamma    86.9022

_space_group_name_H-M_alt    "P 1"
_space_group_IT_number       1

loop_
  _space_group_symop_operation_xyz
  'x, y, z'

loop_
  _atom_site_type_symbol
  _atom_site_label
  _atom_site_symmetry_multiplicity
  _atom_site_fract_x
  _atom_site_fract_y
  _atom_site_fract_z
  _atom_site_occupancy
  O   O1        1.0  0.92705  0.09780  0.93922  1.0000
  O   O2        1.0  0.26039  0.43113  0.27255  1.0000
  O   O3        1.0  0.59372  0.76446  0.60588  1.0000
  O   O4        1.0  0.72556  0.11099  0.93926  1.0000
  O   O5        1.0  0.05889  0.44432  0.27260  1.0000
  O   O6        1.0  0.39223  0.77765  0.60593  1.0000
  O   O7        1.0  0.82550  0.99025  0.93924  1.0000
  O   O8        1.0  0.15883  0.32359  0.27258  1.0000
  O   O9        1.0  0.49216  0.65692  0.60591  1.0000
  O   O10       1.0  0.82711  0.21853  0.93923  1.0000
  O   O11       1.0  0.16045  0.55187  0.27257  1.0000
  O   O12       1.0  0.49378  0.88520  0.60590  1.0000
  O   O13       1.0  0.82548  0.99025  0.06034  1.0000
  O   O14       1.0  0.15881  0.32358  0.39368  1.0000
  O   O15       1.0  0.49215  0.65691  0.72701  1.0000
  O   O16       1.0  0.72554  0.11098  0.06036  1.0000
  O   O17       1.0  0.05888  0.44432  0.39370  1.0000
  O   O18       1.0  0.39221  0.77765  0.72703  1.0000
  O   O19       1.0  0.92703  0.09779  0.06031  1.0000
  O   O20       1.0  0.26037  0.43112  0.39365  1.0000
  O   O21       1.0  0.59370  0.76446  0.72698  1.0000
  Zn  Zn1       1.0  0.82628  0.10439  0.07957  1.0000
  Zn  Zn2       1.0  0.15962  0.43772  0.41290  1.0000
  Zn  Zn3       1.0  0.49295  0.77105  0.74623  1.0000
  Zn  Zn4       1.0  0.82631  0.10439  0.92001  1.0000
  Zn  Zn5       1.0  0.15964  0.43773  0.25335  1.0000
  Zn  Zn6       1.0  0.49298  0.77106  0.58668  1.0000
  O   O22       1.0  0.82710  0.21853  0.06033  1.0000
  O   O23       1.0  0.16043  0.55186  0.39367  1.0000
  O   O24       1.0  0.49376  0.88519  0.72700  1.0000
  C   C1        1.0  0.69965  0.11056  0.99982  1.0000
  C   C2        1.0  0.03298  0.44389  0.33315  1.0000
  C   C3        1.0  0.36632  0.77723  0.66649  1.0000
  C   C4        1.0  0.62247  0.10929  0.99984  1.0000
  C   C5        1.0  0.95581  0.44262  0.33317  1.0000
  C   C6        1.0  0.28914  0.77595  0.66651  1.0000
  C   C7        1.0  0.58191  0.18013  0.99982  1.0000
  C   C8        1.0  0.91524  0.51346  0.33316  1.0000
  C   C9        1.0  0.24857  0.84679  0.66649  1.0000
  C   C10       1.0  0.50939  0.17893  0.99982  1.0000
  C   C11       1.0  0.84272  0.51226  0.33315  1.0000
  C   C12       1.0  0.17606  0.84560  0.66648  1.0000
  C   C13       1.0  0.47744  0.10689  0.99981  1.0000
  C   C14       1.0  0.81078  0.44022  0.33314  1.0000
  C   C15       1.0  0.14411  0.77355  0.66647  1.0000
  C   C16       1.0  0.51802  0.03604  0.99983  1.0000
  C   C17       1.0  0.85135  0.36937  0.33316  1.0000
  C   C18       1.0  0.18468  0.70270  0.66649  1.0000
  C   C19       1.0  0.59053  0.03724  0.99984  1.0000
  C   C20       1.0  0.92387  0.37057  0.33318  1.0000
  C   C21       1.0  0.25720  0.70390  0.66651  1.0000
  C   C22       1.0  0.36589  0.05026  0.95736  1.0000
  C   C23       1.0  0.69922  0.38359  0.29069  1.0000
  C   C24       1.0  0.03255  0.71692  0.62403  1.0000
  C   C25       1.0  0.29337  0.04906  0.95734  1.0000
  C   C26       1.0  0.62670  0.38239  0.29067  1.0000
  C   C27       1.0  0.96004  0.71573  0.62401  1.0000
  C   C28       1.0  0.25378  0.10319  0.99976  1.0000
  C   C29       1.0  0.58711  0.43652  0.33310  1.0000
  C   C30       1.0  0.92045  0.76985  0.66643  1.0000
  C   C31       1.0  0.28671  0.15852  0.04220  1.0000
  C   C32       1.0  0.62004  0.49186  0.37553  1.0000
  C   C33       1.0  0.95338  0.82519  0.70887  1.0000
  C   C34       1.0  0.35923  0.15972  0.04221  1.0000
  C   C35       1.0  0.69256  0.49306  0.37555  1.0000
  C   C36       1.0  0.02589  0.82639  0.70888  1.0000
  C   C37       1.0  0.39881  0.10558  0.99979  1.0000
  C   C38       1.0  0.73215  0.43891  0.33313  1.0000
  C   C39       1.0  0.06548  0.77225  0.66646  1.0000
  C   C40       1.0  0.13458  0.17274  0.99974  1.0000
  C   C41       1.0  0.46792  0.50607  0.33308  1.0000
  C   C42       1.0  0.80125  0.83940  0.66641  1.0000
  C   C43       1.0  0.06206  0.17154  0.99974  1.0000
  C   C44       1.0  0.39540  0.50487  0.33307  1.0000
  C   C45       1.0  0.72873  0.83820  0.66641  1.0000
  C   C46       1.0  0.07069  0.02864  0.99974  1.0000
  C   C47       1.0  0.40403  0.36197  0.33308  1.0000
  C   C48       1.0  0.73736  0.69530  0.66641  1.0000
  C   C49       1.0  0.14321  0.02984  0.99975  1.0000
  C   C50       1.0  0.47654  0.36317  0.33309  1.0000
  C   C51       1.0  0.80988  0.69651  0.66642  1.0000
  C   C52       1.0  0.17515  0.10189  0.99975  1.0000
  C   C53       1.0  0.50848  0.43522  0.33308  1.0000
  C   C54       1.0  0.84182  0.76856  0.66642  1.0000
  C   C55       1.0  0.82341  0.96104  0.99979  1.0000
  C   C56       1.0  0.15675  0.29438  0.33313  1.0000
  C   C57       1.0  0.49008  0.62771  0.66646  1.0000
  C   C58       1.0  0.81721  0.87402  0.99980  1.0000
  C   C59       1.0  0.15054  0.20736  0.33313  1.0000
  C   C60       1.0  0.48388  0.54069  0.66646  1.0000
  C   C61       1.0  0.87704  0.82357  0.99978  1.0000
  C   C62       1.0  0.21037  0.15690  0.33312  1.0000
  C   C63       1.0  0.54371  0.49024  0.66645  1.0000
  C   C64       1.0  0.87121  0.74180  0.99978  1.0000
  C   C65       1.0  0.20454  0.07514  0.33311  1.0000
  C   C66       1.0  0.53788  0.40847  0.66644  1.0000
  C   C67       1.0  0.80555  0.71049  0.99979  1.0000
  C   C68       1.0  0.13888  0.04382  0.33312  1.0000
  C   C69       1.0  0.47222  0.37716  0.66646  1.0000
  C   C70       1.0  0.74572  0.76095  0.99980  1.0000
  C   C71       1.0  0.07905  0.09428  0.33314  1.0000
  C   C72       1.0  0.41238  0.42762  0.66647  1.0000
  C   C73       1.0  0.75155  0.84271  0.99980  1.0000
  C   C74       1.0  0.08488  0.17605  0.33314  1.0000
  C   C75       1.0  0.41821  0.50938  0.66647  1.0000
  C   C76       1.0  0.78138  0.46698  0.99979  1.0000
  C   C77       1.0  0.11471  0.80031  0.33312  1.0000
  C   C78       1.0  0.44805  0.13365  0.66645  1.0000
  C   C79       1.0  0.77556  0.38521  0.99979  1.0000
  C   C80       1.0  0.10889  0.71854  0.33312  1.0000
  C   C81       1.0  0.44222  0.05187  0.66646  1.0000
  C   C82       1.0  0.90105  0.36607  0.99976  1.0000
  C   C83       1.0  0.23438  0.69940  0.33309  1.0000
  C   C84       1.0  0.56771  0.03273  0.66643  1.0000
  C   C85       1.0  0.90687  0.44783  0.99977  1.0000
  C   C86       1.0  0.24021  0.78117  0.33310  1.0000
  C   C87       1.0  0.57354  0.11450  0.66643  1.0000
  C   C88       1.0  0.84704  0.49828  0.99977  1.0000
  C   C89       1.0  0.18037  0.83162  0.33311  1.0000
  C   C90       1.0  0.51371  0.16495  0.66644  1.0000
  N   N1        1.0  0.79959  0.62691  0.99979  1.0000
  N   N2        1.0  0.13292  0.96025  0.33312  1.0000
  N   N3        1.0  0.46626  0.29358  0.66645  1.0000
  N   N4        1.0  0.85300  0.58186  0.99977  1.0000
  N   N5        1.0  0.18634  0.91520  0.33311  1.0000
  N   N6        1.0  0.51967  0.24853  0.66644  1.0000
  C   C91       1.0  0.95294  0.09822  0.99976  1.0000
  C   C92       1.0  0.28628  0.43155  0.33309  1.0000
  C   C93       1.0  0.61961  0.76488  0.66642  1.0000
  C   C94       1.0  0.03012  0.09949  0.99973  1.0000
  C   C95       1.0  0.36346  0.43282  0.33307  1.0000
  C   C96       1.0  0.69679  0.76616  0.66640  1.0000
  C   C97       1.0  0.82918  0.24773  0.99978  1.0000
  C   C98       1.0  0.16252  0.58107  0.33311  1.0000
  C   C99       1.0  0.49585  0.91440  0.66645  1.0000
  C   C100      1.0  0.83538  0.33476  0.99977  1.0000
  C   C101      1.0  0.16872  0.66809  0.33311  1.0000
  C   C102      1.0  0.50205  0.00142  0.66644  1.0000
  N   N7        1.0  0.82627  0.10438  0.18846  1.0000
  N   N8        1.0  0.15961  0.43771  0.52179  1.0000
  N   N9        1.0  0.49294  0.77105  0.85512  1.0000
  N   N10       1.0  0.82633  0.10439  0.81112  1.0000
  N   N11       1.0  0.15966  0.43772  0.14445  1.0000
  N   N12       1.0  0.49299  0.77106  0.47779  1.0000
  C   C103      1.0  0.87054  0.05094  0.22655  1.0000
  C   C104      1.0  0.20388  0.38428  0.55988  1.0000
  C   C105      1.0  0.53721  0.71761  0.89322  1.0000
  C   C106      1.0  0.87055  0.05094  0.30278  1.0000
  C   C107      1.0  0.20388  0.38427  0.63611  1.0000
  C   C108      1.0  0.53721  0.71761  0.96944  1.0000
  C   C109      1.0  0.82629  0.10439  0.34091  1.0000
  C   C110      1.0  0.15962  0.43772  0.67424  1.0000
  C   C111      1.0  0.49296  0.77105  0.00758  1.0000
  C   C112      1.0  0.78201  0.15783  0.30281  1.0000
  C   C113      1.0  0.11534  0.49116  0.63614  1.0000
  C   C114      1.0  0.44868  0.82449  0.96947  1.0000
  C   C115      1.0  0.78200  0.15782  0.22658  1.0000
  C   C116      1.0  0.11534  0.49116  0.55992  1.0000
  C   C117      1.0  0.44867  0.82449  0.89325  1.0000
  C   C118      1.0  0.82115  0.17581  0.46167  1.0000
  C   C119      1.0  0.15449  0.50915  0.79500  1.0000
  C   C120      1.0  0.48782  0.84248  0.12833  1.0000
  C   C121      1.0  0.82117  0.17582  0.53789  1.0000
  C   C122      1.0  0.15450  0.50915  0.87123  1.0000
  C   C123      1.0  0.48783  0.84249  0.20456  1.0000
  C   C124      1.0  0.82631  0.10440  0.57602  1.0000
  C   C125      1.0  0.15964  0.43773  0.90935  1.0000
  C   C126      1.0  0.49298  0.77106  0.24268  1.0000
  C   C127      1.0  0.83145  0.03296  0.53791  1.0000
  C   C128      1.0  0.16479  0.36630  0.87124  1.0000
  C   C129      1.0  0.49812  0.69963  0.20457  1.0000
  C   C130      1.0  0.83145  0.03296  0.46168  1.0000
  C   C131      1.0  0.16478  0.36629  0.79501  1.0000
  C   C132      1.0  0.49811  0.69963  0.12835  1.0000
  C   C133      1.0  0.82629  0.10439  0.42356  1.0000
  C   C134      1.0  0.15963  0.43773  0.75690  1.0000
  C   C135      1.0  0.49296  0.77106  0.09023  1.0000
  C   C136      1.0  0.87059  0.05095  0.69676  1.0000
  C   C137      1.0  0.20392  0.38428  0.03010  1.0000
  C   C138      1.0  0.53725  0.71762  0.36343  1.0000
  C   C139      1.0  0.87059  0.05095  0.77299  1.0000
  C   C140      1.0  0.20392  0.38428  0.10633  1.0000
  C   C141      1.0  0.53725  0.71761  0.43966  1.0000
  C   C142      1.0  0.78205  0.15784  0.77302  1.0000
  C   C143      1.0  0.11539  0.49117  0.10636  1.0000
  C   C144      1.0  0.44872  0.82451  0.43969  1.0000
  C   C145      1.0  0.78205  0.15784  0.69680  1.0000
  C   C146      1.0  0.11538  0.49117  0.03013  1.0000
  C   C147      1.0  0.44872  0.82450  0.36346  1.0000
  C   C148      1.0  0.82632  0.10439  0.65867  1.0000
  C   C149      1.0  0.15965  0.43773  0.99200  1.0000
  C   C150      1.0  0.49299  0.77106  0.32534  1.0000
  H   H1        1.0  0.26656  0.00400  0.92279  1.0000
  H   H2        1.0  0.59990  0.33734  0.25612  1.0000
  H   H3        1.0  0.93323  0.67067  0.58945  1.0000
  F   F1        1.0  0.96472  0.31237  0.99975  1.0000
  F   F2        1.0  0.29806  0.64570  0.33309  1.0000
  F   F3        1.0  0.63139  0.97904  0.66642  1.0000
  H   H4        1.0  0.02903  0.22923  0.99973  1.0000
  H   H5        1.0  0.36237  0.56256  0.33306  1.0000
  H   H6        1.0  0.69570  0.89589  0.66640  1.0000
  F   F4        1.0  0.91767  0.99406  0.34332  1.0000
  F   F5        1.0  0.25100  0.32740  0.67666  1.0000
  F   F6        1.0  0.58433  0.66073  0.00999  1.0000
  H   H7        1.0  0.96034  0.47332  0.99976  1.0000
  H   H8        1.0  0.29367  0.80666  0.33309  1.0000
  H   H9        1.0  0.62701  0.13999  0.66642  1.0000
  F   F7        1.0  0.83693  0.95694  0.57848  1.0000
  F   F8        1.0  0.17027  0.29028  0.91181  1.0000
  F   F9        1.0  0.50360  0.62361  0.24514  1.0000
  F   F10       1.0  0.91770  0.99407  0.65619  1.0000
  F   F11       1.0  0.25103  0.32740  0.98952  1.0000
  F   F12       1.0  0.58437  0.66074  0.32285  1.0000
  F   F13       1.0  0.91770  0.99407  0.81354  1.0000
  F   F14       1.0  0.25103  0.32740  0.14687  1.0000
  F   F15       1.0  0.58437  0.66073  0.48020  1.0000
  H   H10       1.0  0.74601  0.20135  0.80407  1.0000
  H   H11       1.0  0.07935  0.53469  0.13740  1.0000
  H   H12       1.0  0.41268  0.86802  0.47074  1.0000
  F   F16       1.0  0.83692  0.95694  0.42113  1.0000
  F   F17       1.0  0.17025  0.29027  0.75446  1.0000
  F   F18       1.0  0.50358  0.62361  0.08779  1.0000
  H   H13       1.0  0.73266  0.50805  0.99979  1.0000
  H   H14       1.0  0.06600  0.84138  0.33313  1.0000
  H   H15       1.0  0.39933  0.17471  0.66646  1.0000
  F   F19       1.0  0.73494  0.21471  0.65625  1.0000
  F   F20       1.0  0.06827  0.54805  0.98959  1.0000
  F   F21       1.0  0.40160  0.88138  0.32292  1.0000
  F   F22       1.0  0.81570  0.25184  0.57844  1.0000
  F   F23       1.0  0.14903  0.58517  0.91178  1.0000
  F   F24       1.0  0.48236  0.91851  0.24511  1.0000
  H   H16       1.0  0.16059  0.23140  0.99975  1.0000
  H   H17       1.0  0.49392  0.56474  0.33308  1.0000
  H   H18       1.0  0.82725  0.89807  0.66642  1.0000
  H   H19       1.0  0.93051  0.84906  0.99978  1.0000
  H   H20       1.0  0.26384  0.18239  0.33311  1.0000
  H   H21       1.0  0.59717  0.51572  0.66644  1.0000
  F   F25       1.0  0.03670  0.95196  0.99974  1.0000
  F   F26       1.0  0.37003  0.28530  0.33308  1.0000
  F   F27       1.0  0.70337  0.61863  0.66641  1.0000
  F   F28       1.0  0.18639  0.95444  0.99977  1.0000
  F   F29       1.0  0.51972  0.28777  0.33310  1.0000
  F   F30       1.0  0.85306  0.62111  0.66643  1.0000
  F   F31       1.0  0.81573  0.25184  0.42110  1.0000
  F   F32       1.0  0.14906  0.58517  0.75443  1.0000
  F   F33       1.0  0.48240  0.91851  0.08777  1.0000
  H   H22       1.0  0.72208  0.35972  0.99981  1.0000
  H   H23       1.0  0.05542  0.69305  0.33315  1.0000
  H   H24       1.0  0.38875  0.02638  0.66648  1.0000
  F   F34       1.0  0.40801  0.99264  0.91221  1.0000
  F   F35       1.0  0.74135  0.32598  0.24554  1.0000
  F   F36       1.0  0.07468  0.65931  0.57887  1.0000
  H   H25       1.0  0.49200  0.97738  0.99981  1.0000
  H   H26       1.0  0.82534  0.31071  0.33315  1.0000
  H   H27       1.0  0.15867  0.64404  0.66648  1.0000
  H   H28       1.0  0.74597  0.20134  0.33386  1.0000
  H   H29       1.0  0.07931  0.53467  0.66719  1.0000
  H   H30       1.0  0.41264  0.86801  0.00053  1.0000
  H   H31       1.0  0.69225  0.73545  0.99981  1.0000
  H   H32       1.0  0.02559  0.06878  0.33314  1.0000
  H   H33       1.0  0.35892  0.40212  0.66648  1.0000
  F   F37       1.0  0.73488  0.21470  0.18604  1.0000
  F   F38       1.0  0.06822  0.54803  0.51937  1.0000
  F   F39       1.0  0.40155  0.88136  0.85271  1.0000
  H   H34       1.0  0.70283  0.88379  0.99981  1.0000
  H   H35       1.0  0.03616  0.21713  0.33315  1.0000
  H   H36       1.0  0.36950  0.55046  0.66648  1.0000
  H   H37       1.0  0.62356  0.97955  0.99986  1.0000
  H   H38       1.0  0.95690  0.31288  0.33319  1.0000
  H   H39       1.0  0.29023  0.64621  0.66652  1.0000
  F   F40       1.0  0.91766  0.99406  0.18598  1.0000
  F   F41       1.0  0.25099  0.32740  0.51931  1.0000
  F   F42       1.0  0.58432  0.66073  0.85264  1.0000
  F   F43       1.0  0.61589  0.25681  0.99982  1.0000
  F   F44       1.0  0.94923  0.59015  0.33316  1.0000
  F   F45       1.0  0.28256  0.92348  0.66649  1.0000
  F   F46       1.0  0.46621  0.25433  0.99980  1.0000
  F   F47       1.0  0.79954  0.58767  0.33314  1.0000
  F   F48       1.0  0.13287  0.92100  0.66647  1.0000
  H   H40       1.0  0.38604  0.20478  0.07677  1.0000
  H   H41       1.0  0.71937  0.53811  0.41010  1.0000
  H   H42       1.0  0.05270  0.87144  0.74343  1.0000
  H   H43       1.0  0.91993  0.70073  0.99977  1.0000
  H   H44       1.0  0.25326  0.03406  0.33310  1.0000
  H   H45       1.0  0.58659  0.36740  0.66643  1.0000
  F   F49       1.0  0.24458  0.21613  0.08735  1.0000
  F   F50       1.0  0.57791  0.54947  0.42069  1.0000
  F   F51       1.0  0.91125  0.88280  0.75402  1.0000
