data_image0
_chemical_formula_structural       O7Cu2OC2NC16NC10HOCH2C2H6OCH2C2H5OCH2C2H7OCH2C2H5OCH2C2H10
_chemical_formula_sum              "O13 Cu2 C43 N2 H44"
_cell_length_a       14.0442
_cell_length_b       9.13031
_cell_length_c       10.6546
_cell_angle_alpha    89.9987
_cell_angle_beta     88.8383
_cell_angle_gamma    90.001

_space_group_name_H-M_alt    "P 1"
_space_group_IT_number       1

loop_
  _space_group_symop_operation_xyz
  'x, y, z'

loop_
  _atom_site_type_symbol
  _atom_site_label
  _atom_site_symmetry_multiplicity
  _atom_site_fract_x
  _atom_site_fract_y
  _atom_site_fract_z
  _atom_site_occupancy
  O   O1        1.0  0.25970  0.12172  0.30302  1.0000
  O   O2        1.0  0.98366  0.12174  0.29208  1.0000
  O   O3        1.0  0.12803  0.12172  0.11545  1.0000
  O   O4        1.0  0.11533  0.12174  0.47965  1.0000
  O   O5        1.0  0.12801  0.87813  0.11546  1.0000
  O   O6        1.0  0.98365  0.87814  0.29209  1.0000
  O   O7        1.0  0.25969  0.87812  0.30303  1.0000
  Cu  Cu1       1.0  0.12167  0.85589  0.29756  1.0000
  Cu  Cu2       1.0  0.12168  0.14397  0.29755  1.0000
  O   O8        1.0  0.11532  0.87814  0.47966  1.0000
  C   C1        1.0  0.94831  0.99994  0.28730  1.0000
  C   C2        1.0  0.84299  0.99995  0.27302  1.0000
  N   N1        1.0  0.12167  0.65327  0.29757  1.0000
  C   C3        1.0  0.17969  0.57660  0.38028  1.0000
  C   C4        1.0  0.17971  0.42326  0.38025  1.0000
  C   C5        1.0  0.06366  0.42327  0.21481  1.0000
  C   C6        1.0  0.06365  0.57661  0.21483  1.0000
  C   C7        1.0  0.23771  0.65326  0.46302  1.0000
  C   C8        1.0  0.29574  0.57659  0.54573  1.0000
  C   C9        1.0  0.29576  0.42325  0.54571  1.0000
  C   C10       1.0  0.23774  0.34658  0.46297  1.0000
  C   C11       1.0  0.59320  0.99994  0.34818  1.0000
  C   C12       1.0  0.65016  0.99994  0.24693  1.0000
  C   C13       1.0  0.75746  0.99994  0.26145  1.0000
  C   C14       1.0  0.48589  0.99993  0.33367  1.0000
  C   C15       1.0  0.29504  0.99992  0.30781  1.0000
  C   C16       1.0  0.40036  0.99993  0.32209  1.0000
  C   C17       1.0  0.12709  0.99993  0.06856  1.0000
  C   C18       1.0  0.12430  0.99993  0.92884  1.0000
  N   N2        1.0  0.12169  0.34660  0.29753  1.0000
  C   C19       1.0  0.20930  0.99992  0.85790  1.0000
  C   C20       1.0  0.20668  0.99993  0.72661  1.0000
  C   C21       1.0  0.03404  0.99996  0.73722  1.0000
  C   C22       1.0  0.03667  0.99996  0.86850  1.0000
  C   C23       1.0  0.29693  0.99990  0.91823  1.0000
  C   C24       1.0  0.38194  0.99989  0.84729  1.0000
  C   C25       1.0  0.37932  0.99990  0.71600  1.0000
  C   C26       1.0  0.29168  0.99992  0.65566  1.0000
  C   C27       1.0  0.11626  0.99994  0.52655  1.0000
  C   C28       1.0  0.11905  0.99994  0.66627  1.0000
  H   H1        1.0  0.23770  0.77811  0.46304  1.0000
  O   O9        1.0  0.94900  0.99990  0.67841  1.0000
  C   C29       1.0  0.96491  0.99994  0.54732  1.0000
  H   H2        1.0  0.03873  0.95381  0.52484  1.0000
  H   H3        1.0  0.96008  0.11680  0.51031  1.0000
  C   C30       1.0  0.79842  0.96106  0.51211  1.0000
  C   C31       1.0  0.88909  0.90440  0.48450  1.0000
  H   H4        1.0  0.75165  0.90213  0.47336  1.0000
  H   H5        1.0  0.78770  0.96104  0.60043  1.0000
  H   H6        1.0  0.79441  0.05845  0.48127  1.0000
  H   H7        1.0  0.89311  0.80702  0.51535  1.0000
  H   H8        1.0  0.89981  0.90439  0.39619  1.0000
  H   H9        1.0  0.44853  0.99990  0.65825  1.0000
  O   O10       1.0  0.35196  0.65112  0.62623  1.0000
  C   C32       1.0  0.29468  0.73982  0.70544  1.0000
  H   H10       1.0  0.21929  0.69359  0.71041  1.0000
  H   H11       1.0  0.29281  0.85603  0.66645  1.0000
  C   C33       1.0  0.42904  0.79892  0.83185  1.0000
  C   C34       1.0  0.33645  0.74214  0.83796  1.0000
  H   H12       1.0  0.45481  0.80037  0.91359  1.0000
  H   H13       1.0  0.46764  0.73918  0.77847  1.0000
  H   H14       1.0  0.42748  0.89577  0.79934  1.0000
  H   H15       1.0  0.33802  0.64529  0.87045  1.0000
  H   H16       1.0  0.29786  0.80187  0.89134  1.0000
  O   O11       1.0  0.35216  0.34900  0.62617  1.0000
  C   C35       1.0  0.40338  0.44955  0.69917  1.0000
  H   H17       1.0  0.36415  0.55884  0.70208  1.0000
  H   H18       1.0  0.47749  0.46588  0.65581  1.0000
  C   C36       1.0  0.46038  0.25545  0.82998  1.0000
  C   C37       1.0  0.41219  0.38968  0.83357  1.0000
  H   H19       1.0  0.46582  0.21852  0.91288  1.0000
  H   H20       1.0  0.42587  0.18771  0.78080  1.0000
  H   H21       1.0  0.52214  0.26908  0.79384  1.0000
  H   H22       1.0  0.35043  0.37605  0.86969  1.0000
  H   H23       1.0  0.44669  0.45742  0.88276  1.0000
  H   H24       1.0  0.45329  0.99990  0.89643  1.0000
  H   H25       1.0  0.29908  0.99988  0.02513  1.0000
  O   O12       1.0  0.63103  0.00015  0.46466  1.0000
  C   C38       1.0  0.60053  0.12634  0.53030  1.0000
  H   H26       1.0  0.53162  0.16839  0.48851  1.0000
  H   H27       1.0  0.65768  0.21469  0.52201  1.0000
  C   C39       1.0  0.66773  0.03640  0.72095  1.0000
  C   C40       1.0  0.58310  0.08804  0.66964  1.0000
  H   H28       1.0  0.65698  0.01278  0.80691  1.0000
  H   H29       1.0  0.68829  0.95139  0.67673  1.0000
  H   H30       1.0  0.71535  0.11003  0.71403  1.0000
  H   H31       1.0  0.53549  0.01440  0.67655  1.0000
  H   H32       1.0  0.56253  0.17304  0.71387  1.0000
  O   O13       1.0  0.61232  0.00014  0.13044  1.0000
  C   C41       1.0  0.64283  0.12633  0.06480  1.0000
  H   H33       1.0  0.71173  0.16838  0.10659  1.0000
  H   H34       1.0  0.58568  0.21467  0.07307  1.0000
  C   C42       1.0  0.57565  0.03636  0.87414  1.0000
  C   C43       1.0  0.66028  0.08801  0.92546  1.0000
  H   H35       1.0  0.58641  0.01273  0.78819  1.0000
  H   H36       1.0  0.55509  0.95135  0.91836  1.0000
  H   H37       1.0  0.52803  0.10999  0.88104  1.0000
  H   H38       1.0  0.70789  0.01438  0.91857  1.0000
  H   H39       1.0  0.68084  0.17301  0.88123  1.0000
  H   H40       1.0  0.96745  0.99996  0.92627  1.0000
  H   H41       1.0  0.28955  0.99994  0.54876  1.0000
  H   H42       1.0  0.23776  0.22173  0.46295  1.0000
  H   H43       1.0  0.01642  0.36084  0.14745  1.0000
  H   H44       1.0  0.01640  0.63903  0.14748  1.0000
