data_image0
_chemical_formula_structural       O7Cu2OC26N2C2H4CNCNCNCNHCNHCNH2CNCNH2
_chemical_formula_sum              "O8 Cu2 C36 N10 H10"
_cell_length_a       10.723
_cell_length_b       15.6254
_cell_length_c       9.19881
_cell_angle_alpha    71.9197
_cell_angle_beta     89.9964
_cell_angle_gamma    84.3443

_space_group_name_H-M_alt    "P 1"
_space_group_IT_number       1

loop_
  _space_group_symop_operation_xyz
  'x, y, z'

loop_
  _atom_site_type_symbol
  _atom_site_label
  _atom_site_symmetry_multiplicity
  _atom_site_fract_x
  _atom_site_fract_y
  _atom_site_fract_z
  _atom_site_occupancy
  O   O1        1.0  0.65591  0.12644  0.81247  1.0000
  O   O2        1.0  0.29263  0.13855  0.80609  1.0000
  O   O3        1.0  0.48397  0.00132  0.87843  1.0000
  O   O4        1.0  0.46456  0.26367  0.74013  1.0000
  O   O5        1.0  0.48396  0.00132  0.12021  1.0000
  O   O6        1.0  0.29262  0.13855  0.04787  1.0000
  O   O7        1.0  0.65589  0.12644  0.05426  1.0000
  Cu  Cu1       1.0  0.47425  0.13249  0.07314  1.0000
  Cu  Cu2       1.0  0.47427  0.13249  0.78720  1.0000
  O   O8        1.0  0.46455  0.26367  0.98191  1.0000
  C   C1        1.0  0.24613  0.13767  0.92744  1.0000
  C   C2        1.0  0.10761  0.13503  0.92883  1.0000
  C   C3        1.0  0.03184  0.21182  0.88835  1.0000
  C   C4        1.0  0.88867  0.20909  0.88978  1.0000
  C   C5        1.0  0.48309  0.96773  0.01703  1.0000
  C   C6        1.0  0.48045  0.86763  0.06978  1.0000
  C   C7        1.0  0.47180  0.53843  0.58436  1.0000
  C   C8        1.0  0.46932  0.44437  0.63398  1.0000
  C   C9        1.0  0.46930  0.44439  0.89756  1.0000
  C   C10       1.0  0.47179  0.53844  0.84796  1.0000
  C   C11       1.0  0.47304  0.58546  0.69136  1.0000
  C   C12       1.0  0.47303  0.58547  0.95496  1.0000
  C   C13       1.0  0.47551  0.67952  0.90537  1.0000
  C   C14       1.0  0.47675  0.72654  0.74878  1.0000
  C   C15       1.0  0.47552  0.67950  0.64177  1.0000
  C   C16       1.0  0.47177  0.53846  0.11156  1.0000
  C   C17       1.0  0.47301  0.58548  0.21856  1.0000
  C   C18       1.0  0.47550  0.67953  0.16897  1.0000
  C   C19       1.0  0.47674  0.72655  0.01238  1.0000
  C   C20       1.0  0.47673  0.72657  0.27598  1.0000
  C   C21       1.0  0.47921  0.82062  0.22638  1.0000
  C   C22       1.0  0.47922  0.82060  0.96278  1.0000
  C   C23       1.0  0.70239  0.12732  0.93290  1.0000
  C   C24       1.0  0.84092  0.12996  0.93150  1.0000
  C   C25       1.0  0.46544  0.29726  0.84331  1.0000
  C   C26       1.0  0.46807  0.39736  0.79055  1.0000
  N   N1        1.0  0.47425  0.13249  0.27426  1.0000
  N   N2        1.0  0.47428  0.13249  0.58609  1.0000
  C   C27       1.0  0.55459  0.07462  0.37696  1.0000
  C   C28       1.0  0.55461  0.07462  0.54438  1.0000
  H   H1        1.0  0.90601  0.06422  0.96615  1.0000
  H   H2        1.0  0.40548  0.18203  0.31027  1.0000
  H   H3        1.0  0.62340  0.02507  0.63258  1.0000
  H   H4        1.0  0.62336  0.02507  0.34096  1.0000
  C   C29       1.0  0.05204  0.04349  0.97708  1.0000
  N   N3        1.0  0.01019  0.97455  0.01343  1.0000
  C   C30       1.0  0.47318  0.59015  0.41209  1.0000
  N   N4        1.0  0.47421  0.62910  0.28235  1.0000
  C   C31       1.0  0.47534  0.67484  0.44823  1.0000
  N   N5        1.0  0.47429  0.63588  0.57797  1.0000
  C   C32       1.0  0.80073  0.29790  0.84297  1.0000
  N   N6        1.0  0.73449  0.36479  0.80771  1.0000
  H   H5        1.0  0.48019  0.85891  0.31351  1.0000
  C   C33       1.0  0.48060  0.87232  0.79052  1.0000
  N   N7        1.0  0.48163  0.91128  0.66077  1.0000
  H   H6        1.0  0.40550  0.18204  0.49789  1.0000
  C   C34       1.0  0.46792  0.39265  0.51626  1.0000
  N   N8        1.0  0.46686  0.35369  0.42759  1.0000
  H   H7        1.0  0.47875  0.80312  0.70840  1.0000
  H   H8        1.0  0.47654  0.71778  0.51425  1.0000
  C   C35       1.0  0.46793  0.39266  0.06981  1.0000
  N   N9        1.0  0.46689  0.35370  0.19956  1.0000
  C   C36       1.0  0.08741  0.30335  0.84010  1.0000
  N   N10       1.0  0.12926  0.37230  0.80376  1.0000
  H   H9        1.0  0.46974  0.46188  0.15193  1.0000
  H   H10       1.0  0.47199  0.54719  0.34606  1.0000
