data_image0
_chemical_formula_structural       O7Zn2OC22N2C8HF4HF2HF2H5F2HF3H2
_chemical_formula_sum              "O8 Zn2 C30 N2 H11 F13"
_cell_length_a       12.8379
_cell_length_b       10.5405
_cell_length_c       11.8921
_cell_angle_alpha    93.9306
_cell_angle_beta     85.6894
_cell_angle_gamma    89.6772

_space_group_name_H-M_alt    "P 1"
_space_group_IT_number       1

loop_
  _space_group_symop_operation_xyz
  'x, y, z'

loop_
  _atom_site_type_symbol
  _atom_site_label
  _atom_site_symmetry_multiplicity
  _atom_site_fract_x
  _atom_site_fract_y
  _atom_site_fract_z
  _atom_site_occupancy
  O   O1        1.0  0.38447  0.32297  0.90603  1.0000
  O   O2        1.0  0.08255  0.30665  0.90602  1.0000
  O   O3        1.0  0.24040  0.13086  0.90602  1.0000
  O   O4        1.0  0.22662  0.49876  0.90602  1.0000
  O   O5        1.0  0.22723  0.14549  0.09403  1.0000
  O   O6        1.0  0.06938  0.32128  0.09403  1.0000
  O   O7        1.0  0.37131  0.33760  0.09403  1.0000
  Zn  Zn1       1.0  0.21826  0.33176  0.12388  1.0000
  Zn  Zn2       1.0  0.23560  0.31249  0.87617  1.0000
  O   O8        1.0  0.21346  0.51339  0.09403  1.0000
  C   C1        1.0  0.03730  0.30845  0.00002  1.0000
  C   C2        1.0  0.92210  0.29202  0.00002  1.0000
  C   C3        1.0  0.68261  0.48964  0.00003  1.0000
  C   C4        1.0  0.57437  0.47420  0.00003  1.0000
  C   C5        1.0  0.59738  0.24570  0.00002  1.0000
  C   C6        1.0  0.70562  0.26114  0.00002  1.0000
  C   C7        1.0  0.74823  0.38311  0.00003  1.0000
  C   C8        1.0  0.85647  0.39855  0.00002  1.0000
  C   C9        1.0  0.87948  0.17005  0.00002  1.0000
  C   C10       1.0  0.77124  0.15461  0.00002  1.0000
  C   C11       1.0  0.23278  0.09076  0.00003  1.0000
  C   C12       1.0  0.22969  0.94947  0.00002  1.0000
  C   C13       1.0  0.11128  0.75300  0.99960  1.0000
  C   C14       1.0  0.11438  0.89999  0.00002  1.0000
  C   C15       1.0  0.27767  0.90226  0.10738  1.0000
  C   C16       1.0  0.27373  0.75530  0.10747  1.0000
  C   C17       1.0  0.29104  0.73840  0.89367  1.0000
  C   C18       1.0  0.29220  0.88538  0.89225  1.0000
  C   C19       1.0  0.41655  0.33580  0.00003  1.0000
  C   C20       1.0  0.53175  0.35223  0.00002  1.0000
  C   C21       1.0  0.22107  0.55349  0.00002  1.0000
  C   C22       1.0  0.22416  0.69478  0.00002  1.0000
  N   N1        1.0  0.20643  0.34492  0.29293  1.0000
  N   N2        1.0  0.24743  0.29932  0.70712  1.0000
  C   C23       1.0  0.32973  0.20769  0.52959  1.0000
  C   C24       1.0  0.32147  0.21690  0.64793  1.0000
  C   C25       1.0  0.18165  0.37254  0.64796  1.0000
  C   C26       1.0  0.18991  0.36333  0.52962  1.0000
  C   C27       1.0  0.26395  0.28091  0.47044  1.0000
  C   C28       1.0  0.27222  0.27171  0.35209  1.0000
  C   C29       1.0  0.13239  0.42733  0.35213  1.0000
  C   C30       1.0  0.12413  0.43654  0.47047  1.0000
  H   H1        1.0  0.07611  0.93181  0.92306  1.0000
  F   F1        1.0  0.04985  0.95610  0.10078  1.0000
  F   F2        1.0  0.40854  0.11999  0.46660  1.0000
  F   F3        1.0  0.05878  0.70125  0.89896  1.0000
  F   F4        1.0  0.35102  0.18399  0.28911  1.0000
  H   H2        1.0  0.06055  0.72376  0.07615  1.0000
  F   F5        1.0  0.04532  0.52425  0.53347  1.0000
  F   F6        1.0  0.39148  0.13897  0.71088  1.0000
  H   H3        1.0  0.73654  0.05531  0.00003  1.0000
  F   F7        1.0  0.50453  0.58758  0.00004  1.0000
  F   F8        1.0  0.55202  0.11590  0.00003  1.0000
  H   H4        1.0  0.12135  0.43963  0.69616  1.0000
  H   H5        1.0  0.93293  0.08331  0.00001  1.0000
  H   H6        1.0  0.22710  0.72884  0.18773  1.0000
  H   H7        1.0  0.36207  0.93423  0.11138  1.0000
  H   H8        1.0  0.07883  0.48695  0.30395  1.0000
  F   F9        1.0  0.72796  0.61945  0.00002  1.0000
  F   F10       1.0  0.38167  0.70500  0.11385  1.0000
  H   H9        1.0  0.89116  0.49787  0.00003  1.0000
  F   F11       1.0  0.39997  0.68855  0.89273  1.0000
  F   F12       1.0  0.21997  0.96053  0.21181  1.0000
  F   F13       1.0  0.24970  0.68353  0.78731  1.0000
  H   H10       1.0  0.25716  0.91560  0.81283  1.0000
  H   H11       1.0  0.37672  0.91834  0.88577  1.0000
