data_image0
_chemical_formula_structural       Zn4O13C8ONCOC10NC11O2C10HC3H8C3H12C3H7C3H7C3H9C3H7C3H7C3H7C3H7C3H7C3H7
_chemical_formula_sum              "Zn4 O17 C73 N2 H86"
_cell_length_a       13.0328
_cell_length_b       25.6392
_cell_length_c       13.0323
_cell_angle_alpha    97.1417
_cell_angle_beta     90.887
_cell_angle_gamma    82.8428

_space_group_name_H-M_alt    "P 1"
_space_group_IT_number       1

loop_
  _space_group_symop_operation_xyz
  'x, y, z'

loop_
  _atom_site_type_symbol
  _atom_site_label
  _atom_site_symmetry_multiplicity
  _atom_site_fract_x
  _atom_site_fract_y
  _atom_site_fract_z
  _atom_site_occupancy
  Zn  Zn1       1.0  0.49823  0.64692  0.21926  1.0000
  Zn  Zn2       1.0  0.51992  0.56903  0.39126  1.0000
  Zn  Zn3       1.0  0.34811  0.66876  0.41301  1.0000
  Zn  Zn4       1.0  0.32617  0.57186  0.24113  1.0000
  O   O1        1.0  0.42311  0.61414  0.31617  1.0000
  O   O2        1.0  0.64502  0.62627  0.22382  1.0000
  O   O3        1.0  0.51539  0.59022  0.53806  1.0000
  O   O4        1.0  0.36813  0.73902  0.38726  1.0000
  O   O5        1.0  0.66096  0.56904  0.35018  1.0000
  O   O6        1.0  0.47842  0.72298  0.24491  1.0000
  O   O7        1.0  0.38916  0.66349  0.55404  1.0000
  O   O8        1.0  0.20128  0.66623  0.40847  1.0000
  O   O9        1.0  0.33074  0.57386  0.09432  1.0000
  O   O10       1.0  0.18517  0.59503  0.28219  1.0000
  O   O11       1.0  0.45715  0.62901  0.07825  1.0000
  O   O12       1.0  0.49412  0.49625  0.37140  1.0000
  O   O13       1.0  0.35177  0.49833  0.26110  1.0000
  C   C1        1.0  0.15591  0.63331  0.35007  1.0000
  C   C2        1.0  0.04160  0.64150  0.36454  1.0000
  C   C3        1.0  0.98270  0.60987  0.30861  1.0000
  C   C4        1.0  0.86455  0.61833  0.32357  1.0000
  C   C5        1.0  0.42294  0.47832  0.31623  1.0000
  C   C6        1.0  0.42296  0.42020  0.31622  1.0000
  C   C7        1.0  0.49739  0.05874  0.37346  1.0000
  C   C8        1.0  0.49742  0.00413  0.37344  1.0000
  O   O14       1.0  0.56053  0.97497  0.42219  1.0000
  N   N1        1.0  0.42328  0.97789  0.31608  1.0000
  C   C9        1.0  0.34910  0.00626  0.25871  1.0000
  O   O15       1.0  0.28604  0.97892  0.20991  1.0000
  C   C10       1.0  0.34907  0.06086  0.25872  1.0000
  C   C11       1.0  0.42321  0.08710  0.31611  1.0000
  C   C12       1.0  0.57152  0.08498  0.43084  1.0000
  C   C13       1.0  0.57148  0.13958  0.43086  1.0000
  C   C14       1.0  0.49731  0.16795  0.37350  1.0000
  C   C15       1.0  0.42317  0.14171  0.31613  1.0000
  C   C16       1.0  0.27489  0.08923  0.20136  1.0000
  C   C17       1.0  0.27487  0.14384  0.20137  1.0000
  C   C18       1.0  0.34901  0.17008  0.25876  1.0000
  C   C19       1.0  0.34895  0.22468  0.25879  1.0000
  N   N2        1.0  0.42310  0.25092  0.31616  1.0000
  C   C20       1.0  0.49727  0.22255  0.37352  1.0000
  C   C21       1.0  0.34918  0.89158  0.25869  1.0000
  C   C22       1.0  0.34920  0.83698  0.25868  1.0000
  C   C23       1.0  0.49753  0.83485  0.37341  1.0000
  C   C24       1.0  0.49750  0.88946  0.37342  1.0000
  C   C25       1.0  0.42332  0.91782  0.31606  1.0000
  C   C26       1.0  0.49718  0.33723  0.37356  1.0000
  C   C27       1.0  0.49714  0.39183  0.37357  1.0000
  C   C28       1.0  0.34881  0.39395  0.25884  1.0000
  C   C29       1.0  0.34886  0.33935  0.25882  1.0000
  C   C30       1.0  0.42305  0.31099  0.31619  1.0000
  O   O16       1.0  0.28588  0.25387  0.21007  1.0000
  O   O17       1.0  0.56033  0.24989  0.42230  1.0000
  C   C31       1.0  0.69135  0.59490  0.28213  1.0000
  C   C32       1.0  0.80566  0.58670  0.26763  1.0000
  C   C33       1.0  0.38908  0.59931  0.04792  1.0000
  C   C34       1.0  0.37458  0.59299  0.93361  1.0000
  C   C35       1.0  0.42330  0.75050  0.31607  1.0000
  C   C36       1.0  0.42338  0.80861  0.31603  1.0000
  C   C37       1.0  0.43066  0.61746  0.87470  1.0000
  C   C38       1.0  0.41567  0.61093  0.75655  1.0000
  C   C39       1.0  0.45706  0.62895  0.58336  1.0000
  C   C40       1.0  0.47176  0.63540  0.69764  1.0000
  H   H1        1.0  0.01974  0.57654  0.24965  1.0000
  C   C41       1.0  0.99225  0.68602  0.44303  1.0000
  C   C42       1.0  0.01547  0.73463  0.41717  1.0000
  C   C43       1.0  0.97002  0.77567  0.48944  1.0000
  H   H2        1.0  0.01851  0.68107  0.51000  1.0000
  H   H3        1.0  0.91939  0.68583  0.44263  1.0000
  H   H4        1.0  0.08831  0.73482  0.41758  1.0000
  H   H5        1.0  0.98921  0.73960  0.35021  1.0000
  H   H6        1.0  0.89716  0.77547  0.48904  1.0000
  H   H7        1.0  0.99628  0.77071  0.55640  1.0000
  H   H8        1.0  0.98576  0.80865  0.47189  1.0000
  H   H9        1.0  0.82752  0.65167  0.38253  1.0000
  C   C44       1.0  0.85523  0.54226  0.18909  1.0000
  C   C45       1.0  0.96256  0.54269  0.18988  1.0000
  C   C46       1.0  0.00826  0.50176  0.11755  1.0000
  H   H10       1.0  0.82905  0.54724  0.12211  1.0000
  H   H11       1.0  0.83962  0.50922  0.20648  1.0000
  H   H12       1.0  0.97816  0.57573  0.17249  1.0000
  H   H13       1.0  0.98878  0.53771  0.25684  1.0000
  H   H14       1.0  0.99266  0.46872  0.13494  1.0000
  H   H15       1.0  0.98207  0.50674  0.05058  1.0000
  H   H16       1.0  0.08109  0.50205  0.11809  1.0000
  H   H17       1.0  0.55751  0.41320  0.42031  1.0000
  H   H18       1.0  0.53087  0.66120  0.73466  1.0000
  H   H19       1.0  0.55760  0.31414  0.42026  1.0000
  H   H20       1.0  0.63193  0.06189  0.47755  1.0000
  H   H21       1.0  0.31547  0.56721  0.89659  1.0000
  C   C47       1.0  0.65211  0.16796  0.49317  1.0000
  C   C48       1.0  0.71709  0.13142  0.54337  1.0000
  C   C49       1.0  0.79139  0.15754  0.60076  1.0000
  H   H22       1.0  0.61862  0.19453  0.54309  1.0000
  H   H23       1.0  0.69194  0.18389  0.44813  1.0000
  H   H24       1.0  0.67727  0.11550  0.58840  1.0000
  H   H25       1.0  0.75060  0.10485  0.49347  1.0000
  H   H26       1.0  0.83122  0.17347  0.55572  1.0000
  H   H27       1.0  0.75790  0.18411  0.65067  1.0000
  H   H28       1.0  0.83550  0.13275  0.63482  1.0000
  C   C50       1.0  0.26878  0.92238  0.19626  1.0000
  C   C51       1.0  0.31856  0.94595  0.12290  1.0000
  C   C52       1.0  0.24453  0.97432  0.06537  1.0000
  H   H29       1.0  0.22895  0.94908  0.24121  1.0000
  H   H30       1.0  0.22464  0.89894  0.16203  1.0000
  H   H31       1.0  0.36268  0.96938  0.15712  1.0000
  H   H32       1.0  0.35839  0.91926  0.07793  1.0000
  H   H33       1.0  0.20039  0.95088  0.03114  1.0000
  H   H34       1.0  0.20470  0.00101  0.11032  1.0000
  H   H35       1.0  0.27829  0.99030  0.01558  1.0000
  C   C53       1.0  0.33693  0.57646  0.70732  1.0000
  C   C54       1.0  0.36252  0.52457  0.73060  1.0000
  C   C55       1.0  0.29000  0.49280  0.68528  1.0000
  H   H36       1.0  0.33726  0.57658  0.63447  1.0000
  H   H37       1.0  0.27004  0.59000  0.73367  1.0000
  H   H38       1.0  0.42939  0.51103  0.70425  1.0000
  H   H39       1.0  0.36218  0.52444  0.80344  1.0000
  H   H40       1.0  0.22311  0.50634  0.71162  1.0000
  H   H41       1.0  0.29034  0.49292  0.61243  1.0000
  H   H42       1.0  0.30734  0.45759  0.70107  1.0000
  H   H43       1.0  0.55787  0.91082  0.42015  1.0000
  H   H44       1.0  0.55793  0.81175  0.42011  1.0000
  C   C56       1.0  0.19437  0.17456  0.13891  1.0000
  C   C57       1.0  0.20377  0.15407  0.03431  1.0000
  C   C58       1.0  0.12963  0.18234  0.97675  1.0000
  H   H45       1.0  0.20488  0.21084  0.14701  1.0000
  H   H46       1.0  0.12718  0.17134  0.16272  1.0000
  H   H47       1.0  0.27095  0.15729  0.01051  1.0000
  H   H48       1.0  0.19325  0.11779  0.02619  1.0000
  H   H49       1.0  0.06244  0.17913  0.00055  1.0000
  H   H50       1.0  0.14015  0.21863  0.98485  1.0000
  H   H51       1.0  0.13599  0.16844  0.90577  1.0000
  C   C59       1.0  0.26864  0.80858  0.19628  1.0000
  C   C60       1.0  0.20370  0.84512  0.14604  1.0000
  C   C61       1.0  0.12949  0.81898  0.08853  1.0000
  H   H52       1.0  0.22877  0.79263  0.24122  1.0000
  H   H53       1.0  0.30224  0.78202  0.14639  1.0000
  H   H54       1.0  0.17010  0.87167  0.19592  1.0000
  H   H55       1.0  0.24354  0.86107  0.10108  1.0000
  H   H56       1.0  0.16308  0.79242  0.03863  1.0000
  H   H57       1.0  0.08962  0.80303  0.13348  1.0000
  H   H58       1.0  0.08542  0.84376  0.05442  1.0000
  C   C62       1.0  0.19430  0.06074  0.13923  1.0000
  C   C63       1.0  0.13581  0.03730  0.20584  1.0000
  C   C64       1.0  0.06154  0.01106  0.14865  1.0000
  H   H59       1.0  0.22781  0.03414  0.08939  1.0000
  H   H60       1.0  0.15007  0.08545  0.10510  1.0000
  H   H61       1.0  0.18003  0.01259  0.23996  1.0000
  H   H62       1.0  0.10227  0.06389  0.25568  1.0000
  H   H63       1.0  0.01731  0.03576  0.11451  1.0000
  H   H64       1.0  0.09507  0.98445  0.09881  1.0000
  H   H65       1.0  0.02184  0.99515  0.19383  1.0000
  C   C65       1.0  0.26831  0.31095  0.19642  1.0000
  C   C66       1.0  0.20335  0.34748  0.14618  1.0000
  C   C67       1.0  0.12915  0.32134  0.08866  1.0000
  H   H66       1.0  0.22843  0.29500  0.24136  1.0000
  H   H67       1.0  0.30192  0.28439  0.14653  1.0000
  H   H68       1.0  0.16975  0.37403  0.19606  1.0000
  H   H69       1.0  0.24320  0.36343  0.10122  1.0000
  H   H70       1.0  0.16276  0.29478  0.03877  1.0000
  H   H71       1.0  0.08929  0.30539  0.13360  1.0000
  H   H72       1.0  0.08508  0.34612  0.05456  1.0000
  C   C68       1.0  0.26840  0.42485  0.19659  1.0000
  C   C69       1.0  0.28427  0.47828  0.20887  1.0000
  C   C70       1.0  0.21023  0.50675  0.15152  1.0000
  H   H73       1.0  0.20118  0.42171  0.22039  1.0000
  H   H74       1.0  0.27465  0.41105  0.12555  1.0000
  H   H75       1.0  0.27801  0.49207  0.27990  1.0000
  H   H76       1.0  0.35147  0.48143  0.18507  1.0000
  H   H77       1.0  0.21647  0.49296  0.08048  1.0000
  H   H78       1.0  0.14301  0.50361  0.17533  1.0000
  H   H79       1.0  0.22098  0.54301  0.15984  1.0000
  C   C71       1.0  0.50933  0.65189  0.92421  1.0000
  C   C72       1.0  0.45892  0.69295  0.99327  1.0000
  C   C73       1.0  0.53136  0.72468  0.03891  1.0000
  H   H80       1.0  0.54261  0.66645  0.87205  1.0000
  H   H81       1.0  0.55938  0.63100  0.96051  1.0000
  H   H82       1.0  0.40889  0.71385  0.95698  1.0000
  H   H83       1.0  0.42564  0.67841  0.04546  1.0000
  H   H84       1.0  0.58141  0.70378  0.07521  1.0000
  H   H85       1.0  0.56464  0.73923  0.98674  1.0000
  H   H86       1.0  0.49717  0.75254  0.08578  1.0000
