data_image0
_chemical_formula_structural       O7Cu2OC2NC5N2CN2C11N2CN2C10NC14HOC2H5OC2H7OC2H5OC2H5OC2H6OC2H5OC2H7OC2H5OC2H5OC2H8OC2H6OC2H5OC2H5OC2H5
_chemical_formula_sum              "O22 Cu2 C72 N10 H80"
_cell_length_a       19.1889
_cell_length_b       17.6663
_cell_length_c       10.6545
_cell_angle_alpha    89.9938
_cell_angle_beta     96.1908
_cell_angle_gamma    90.0165

_space_group_name_H-M_alt    "P 1"
_space_group_IT_number       1

loop_
  _space_group_symop_operation_xyz
  'x, y, z'

loop_
  _atom_site_type_symbol
  _atom_site_label
  _atom_site_symmetry_multiplicity
  _atom_site_fract_x
  _atom_site_fract_y
  _atom_site_fract_z
  _atom_site_occupancy
  O   O1        1.0  0.92718  0.06307  0.84337  1.0000
  O   O2        1.0  0.72401  0.06305  0.82223  1.0000
  O   O3        1.0  0.83027  0.06306  0.01564  1.0000
  O   O4        1.0  0.82092  0.06306  0.64996  1.0000
  O   O5        1.0  0.83025  0.93716  0.01565  1.0000
  O   O6        1.0  0.72399  0.93715  0.82224  1.0000
  O   O7        1.0  0.92717  0.93718  0.84338  1.0000
  Cu  Cu1       1.0  0.82558  0.92567  0.83281  1.0000
  Cu  Cu2       1.0  0.82560  0.07455  0.83280  1.0000
  O   O8        1.0  0.82090  0.93717  0.64997  1.0000
  C   C1        1.0  0.69798  0.00010  0.82291  1.0000
  C   C2        1.0  0.62047  0.00009  0.82495  1.0000
  N   N1        1.0  0.82556  0.82095  0.83282  1.0000
  C   C3        1.0  0.58408  0.06871  0.82593  1.0000
  C   C4        1.0  0.51124  0.06872  0.82786  1.0000
  C   C5        1.0  0.47480  0.00010  0.82884  1.0000
  C   C6        1.0  0.51119  0.93146  0.82786  1.0000
  C   C7        1.0  0.58403  0.93146  0.82591  1.0000
  N   N2        1.0  0.36528  0.94903  0.90336  1.0000
  N   N3        1.0  0.29609  0.94904  0.90520  1.0000
  C   C8        1.0  0.25535  0.00012  0.83469  1.0000
  N   N4        1.0  0.28641  0.05119  0.76227  1.0000
  N   N5        1.0  0.35561  0.05119  0.76043  1.0000
  C   C9        1.0  0.39582  0.00010  0.83094  1.0000
  C   C10       1.0  0.13999  0.06876  0.83775  1.0000
  C   C11       1.0  0.06715  0.06877  0.83967  1.0000
  C   C12       1.0  0.06710  0.93151  0.83969  1.0000
  C   C13       1.0  0.13994  0.93150  0.83775  1.0000
  C   C14       1.0  0.17638  0.00013  0.83679  1.0000
  C   C15       1.0  0.87263  0.78134  0.91842  1.0000
  C   C16       1.0  0.87264  0.70210  0.91842  1.0000
  C   C17       1.0  0.82558  0.66246  0.83281  1.0000
  C   C18       1.0  0.77850  0.70207  0.74720  1.0000
  C   C19       1.0  0.77850  0.78132  0.74721  1.0000
  N   N6        1.0  0.81723  0.53804  0.72164  1.0000
  N   N7        1.0  0.81724  0.46276  0.72164  1.0000
  C   C20       1.0  0.82560  0.42369  0.83279  1.0000
  N   N8        1.0  0.83396  0.46275  0.94395  1.0000
  N   N9        1.0  0.83395  0.53804  0.94395  1.0000
  C   C21       1.0  0.82558  0.57653  0.83280  1.0000
  C   C22       1.0  0.87267  0.29816  0.91841  1.0000
  C   C23       1.0  0.87267  0.21891  0.91841  1.0000
  C   C24       1.0  0.77854  0.21889  0.74718  1.0000
  C   C25       1.0  0.77854  0.29813  0.74718  1.0000
  C   C26       1.0  0.82561  0.33776  0.83280  1.0000
  C   C27       1.0  0.95319  0.00013  0.84269  1.0000
  C   C28       1.0  0.03071  0.00014  0.84065  1.0000
  C   C29       1.0  0.82957  0.00011  0.06243  1.0000
  C   C30       1.0  0.82752  0.00011  0.20183  1.0000
  N   N10       1.0  0.82561  0.17927  0.83280  1.0000
  C   C31       1.0  0.82160  0.00012  0.60318  1.0000
  C   C32       1.0  0.82365  0.00012  0.46378  1.0000
  C   C33       1.0  0.95459  0.00012  0.23251  1.0000
  C   C34       1.0  0.01715  0.00012  0.31333  1.0000
  C   C35       1.0  0.01522  0.00012  0.44431  1.0000
  C   C36       1.0  0.95071  0.00012  0.49446  1.0000
  C   C37       1.0  0.88815  0.00012  0.41363  1.0000
  C   C38       1.0  0.89009  0.00012  0.28265  1.0000
  C   C39       1.0  0.76109  0.00012  0.38295  1.0000
  C   C40       1.0  0.76302  0.00011  0.25198  1.0000
  C   C41       1.0  0.69658  0.00012  0.43310  1.0000
  C   C42       1.0  0.63402  0.00012  0.35227  1.0000
  C   C43       1.0  0.63595  0.00011  0.22129  1.0000
  C   C44       1.0  0.70045  0.00011  0.17115  1.0000
  H   H1        1.0  0.61374  0.12460  0.82514  1.0000
  O   O9        1.0  0.73275  0.81968  0.66393  1.0000
  C   C45       1.0  0.63936  0.81129  0.49414  1.0000
  C   C46       1.0  0.69114  0.76775  0.58837  1.0000
  H   H2        1.0  0.60569  0.76933  0.43305  1.0000
  H   H3        1.0  0.66977  0.84839  0.43146  1.0000
  H   H4        1.0  0.60425  0.84840  0.54823  1.0000
  H   H5        1.0  0.72626  0.73061  0.53439  1.0000
  H   H6        1.0  0.66069  0.73071  0.65106  1.0000
  O   O10       1.0  0.57520  0.00024  0.14272  1.0000
  C   C47       1.0  0.50367  0.06544  0.97698  1.0000
  C   C48       1.0  0.57250  0.06539  0.06590  1.0000
  H   H7        1.0  0.50147  0.11810  0.91483  1.0000
  H   H8        1.0  0.45721  0.06549  0.03527  1.0000
  H   H9        1.0  0.50139  0.01273  0.91497  1.0000
  H   H10       1.0  0.57484  0.11810  0.12793  1.0000
  H   H11       1.0  0.61892  0.06530  0.00754  1.0000
  H   H12       1.0  0.70203  0.00010  0.06450  1.0000
  H   H13       1.0  0.74019  0.66979  0.67750  1.0000
  O   O11       1.0  0.03180  0.86479  0.84081  1.0000
  C   C49       1.0  0.01685  0.74750  0.95022  1.0000
  C   C50       1.0  0.05690  0.82302  0.94910  1.0000
  H   H14       1.0  0.03711  0.71371  0.03778  1.0000
  H   H15       1.0  0.02520  0.71360  0.86204  1.0000
  H   H16       1.0  0.95854  0.75931  0.95171  1.0000
  H   H17       1.0  0.11522  0.81128  0.94765  1.0000
  H   H18       1.0  0.04848  0.85689  0.03728  1.0000
  O   O12       1.0  0.91841  0.33654  0.00169  1.0000
  C   C51       1.0  0.01180  0.32820  0.17148  1.0000
  C   C52       1.0  0.96003  0.28464  0.07725  1.0000
  H   H19       1.0  0.04547  0.28626  0.23257  1.0000
  H   H20       1.0  0.98139  0.36527  0.23417  1.0000
  H   H21       1.0  0.04691  0.36534  0.11740  1.0000
  H   H22       1.0  0.92491  0.24746  0.13123  1.0000
  H   H23       1.0  0.99048  0.24762  0.01457  1.0000
  O   O13       1.0  0.91833  0.66369  0.00175  1.0000
  C   C53       1.0  0.95816  0.63939  0.22029  1.0000
  C   C54       1.0  0.90639  0.68294  0.12607  1.0000
  H   H24       1.0  0.94852  0.65492  0.32083  1.0000
  H   H25       1.0  0.01417  0.65500  0.20429  1.0000
  H   H26       1.0  0.95009  0.57595  0.20551  1.0000
  H   H27       1.0  0.91440  0.74639  0.14079  1.0000
  H   H28       1.0  0.85040  0.66726  0.14209  1.0000
  H   H29       1.0  0.48152  0.87559  0.82865  1.0000
  O   O14       1.0  0.17538  0.86488  0.83699  1.0000
  C   C55       1.0  0.26494  0.78519  0.94363  1.0000
  C   C56       1.0  0.22488  0.86068  0.94463  1.0000
  H   H30       1.0  0.30496  0.78176  0.03066  1.0000
  H   H31       1.0  0.29312  0.78175  0.85492  1.0000
  H   H32       1.0  0.22637  0.73616  0.94460  1.0000
  H   H33       1.0  0.26341  0.90975  0.94371  1.0000
  H   H34       1.0  0.19669  0.86406  0.03334  1.0000
  O   O15       1.0  0.73273  0.18042  0.66414  1.0000
  C   C57       1.0  0.61169  0.15617  0.58994  1.0000
  C   C58       1.0  0.66350  0.19977  0.68408  1.0000
  H   H35       1.0  0.55571  0.17181  0.60601  1.0000
  H   H36       1.0  0.61972  0.09272  0.60464  1.0000
  H   H37       1.0  0.62131  0.17176  0.48941  1.0000
  H   H38       1.0  0.65391  0.18425  0.78464  1.0000
  H   H39       1.0  0.65546  0.26321  0.66927  1.0000
  H   H40       1.0  0.16966  0.12464  0.83696  1.0000
  H   H41       1.0  0.91100  0.18666  0.98812  1.0000
  O   O16       1.0  0.73289  0.33657  0.66385  1.0000
  C   C59       1.0  0.69301  0.36079  0.44529  1.0000
  C   C60       1.0  0.74476  0.31722  0.53954  1.0000
  H   H42       1.0  0.70257  0.34514  0.34477  1.0000
  H   H43       1.0  0.70108  0.42424  0.45989  1.0000
  H   H44       1.0  0.63702  0.34519  0.46146  1.0000
  H   H45       1.0  0.80077  0.33275  0.52343  1.0000
  H   H46       1.0  0.73662  0.25377  0.52492  1.0000
  O   O17       1.0  0.95659  0.00014  0.10531  1.0000
  C   C61       1.0  0.02908  0.00007  0.93418  1.0000
  C   C62       1.0  0.02691  0.00007  0.07826  1.0000
  H   H47       1.0  0.08594  0.00000  0.91227  1.0000
  H   H48       1.0  0.00151  0.05277  0.89175  1.0000
  H   H49       1.0  0.00140  0.94740  0.89186  1.0000
  H   H50       1.0  0.05461  0.05271  0.12068  1.0000
  H   H51       1.0  0.05446  0.94733  0.12060  1.0000
  O   O18       1.0  0.07982  0.00025  0.26467  1.0000
  C   C63       1.0  0.18905  0.06545  0.25087  1.0000
  C   C64       1.0  0.11809  0.06540  0.30603  1.0000
  H   H52       1.0  0.22001  0.11812  0.28430  1.0000
  H   H53       1.0  0.17972  0.06550  0.14336  1.0000
  H   H54       1.0  0.21996  0.01274  0.28417  1.0000
  H   H55       1.0  0.08715  0.11810  0.27282  1.0000
  H   H56       1.0  0.12746  0.06532  0.41352  1.0000
  H   H57       1.0  0.91096  0.81361  0.98813  1.0000
  H   H58       1.0  0.06616  0.00013  0.51012  1.0000
  H   H59       1.0  0.61365  0.87557  0.82512  1.0000
  O   O19       1.0  0.03186  0.13549  0.84045  1.0000
  C   C65       1.0  0.00220  0.25279  0.73225  1.0000
  C   C66       1.0  0.04220  0.17727  0.73123  1.0000
  H   H60       1.0  0.01053  0.28659  0.64394  1.0000
  H   H61       1.0  0.02251  0.28668  0.81968  1.0000
  H   H62       1.0  0.94389  0.24100  0.73386  1.0000
  H   H63       1.0  0.10052  0.18900  0.72957  1.0000
  H   H64       1.0  0.02183  0.14341  0.64381  1.0000
  H   H65       1.0  0.94915  0.00013  0.60111  1.0000
  O   O20       1.0  0.47600  0.13546  0.82886  1.0000
  C   C67       1.0  0.48372  0.27160  0.82857  1.0000
  C   C68       1.0  0.52372  0.19608  0.82747  1.0000
  H   H66       1.0  0.52228  0.32063  0.82743  1.0000
  H   H67       1.0  0.45561  0.27508  0.91737  1.0000
  H   H68       1.0  0.44363  0.27500  0.74164  1.0000
  H   H69       1.0  0.56384  0.19263  0.91435  1.0000
  H   H70       1.0  0.55177  0.19263  0.73862  1.0000
  O   O21       1.0  0.69458  0.00016  0.56030  1.0000
  C   C69       1.0  0.62208  0.00012  0.73142  1.0000
  C   C70       1.0  0.62425  0.00010  0.58735  1.0000
  H   H71       1.0  0.56523  0.00005  0.75333  1.0000
  H   H72       1.0  0.64968  0.05282  0.77383  1.0000
  H   H73       1.0  0.64973  0.94745  0.77377  1.0000
  H   H74       1.0  0.59659  0.05274  0.54489  1.0000
  H   H75       1.0  0.59667  0.94736  0.54503  1.0000
  O   O22       1.0  0.57135  0.00025  0.40093  1.0000
  C   C71       1.0  0.46215  0.06545  0.41471  1.0000
  C   C72       1.0  0.53311  0.06540  0.35955  1.0000
  H   H76       1.0  0.43121  0.11811  0.38126  1.0000
  H   H77       1.0  0.47148  0.06551  0.52221  1.0000
  H   H78       1.0  0.43122  0.01274  0.38144  1.0000
  H   H79       1.0  0.56408  0.11811  0.39272  1.0000
  H   H80       1.0  0.52373  0.06531  0.25205  1.0000
