data_image0
_chemical_formula_structural       O7Cu2OC16N2C4HN2HN2H2N2H2
_chemical_formula_sum              "O8 Cu2 C20 N8 H6"
_cell_length_a       14.0442
_cell_length_b       14.0442
_cell_length_c       12.5036
_cell_angle_alpha    93.8362
_cell_angle_beta     86.1575
_cell_angle_gamma    93.1918

_space_group_name_H-M_alt    "P 1"
_space_group_IT_number       1

loop_
  _space_group_symop_operation_xyz
  'x, y, z'

loop_
  _atom_site_type_symbol
  _atom_site_label
  _atom_site_symmetry_multiplicity
  _atom_site_fract_x
  _atom_site_fract_y
  _atom_site_fract_z
  _atom_site_occupancy
  O   O1        1.0  0.28222  0.22515  0.91071  1.0000
  O   O2        1.0  0.00555  0.21684  0.91070  1.0000
  O   O3        1.0  0.13973  0.08266  0.91072  1.0000
  O   O4        1.0  0.14804  0.35933  0.91068  1.0000
  O   O5        1.0  0.12963  0.09276  0.08936  1.0000
  O   O6        1.0  0.99545  0.22694  0.08934  1.0000
  O   O7        1.0  0.27212  0.23525  0.08935  1.0000
  Cu  Cu1       1.0  0.13286  0.23201  0.10565  1.0000
  Cu  Cu2       1.0  0.14481  0.22007  0.89439  1.0000
  O   O8        1.0  0.13794  0.36943  0.08932  1.0000
  C   C1        1.0  0.96488  0.21825  0.00002  1.0000
  C   C2        1.0  0.85873  0.20740  0.00001  1.0000
  C   C3        1.0  0.61328  0.26450  0.00001  1.0000
  C   C4        1.0  0.66440  0.18759  0.00002  1.0000
  C   C5        1.0  0.77254  0.19862  0.00002  1.0000
  C   C6        1.0  0.50513  0.25348  0.00002  1.0000
  C   C7        1.0  0.13104  0.05209  0.00005  1.0000
  C   C8        1.0  0.12019  0.94594  0.00006  1.0000
  C   C9        1.0  0.17729  0.70048  0.00002  1.0000
  C   C10       1.0  0.10038  0.75161  0.00002  1.0000
  C   C11       1.0  0.11140  0.85975  0.00004  1.0000
  C   C12       1.0  0.16627  0.59234  1.00000  1.0000
  C   C13       1.0  0.31279  0.23384  0.00003  1.0000
  C   C14       1.0  0.41894  0.24468  0.00003  1.0000
  C   C15       1.0  0.14663  0.40000  1.00000  1.0000
  C   C16       1.0  0.15748  0.50614  0.99998  1.0000
  N   N1        1.0  0.12446  0.24042  0.25425  1.0000
  N   N2        1.0  0.15321  0.21166  0.74580  1.0000
  C   C17       1.0  0.16556  0.19930  0.52669  1.0000
  C   C18       1.0  0.11212  0.25277  0.47335  1.0000
  C   C19       1.0  0.11899  0.24590  0.35143  1.0000
  C   C20       1.0  0.15869  0.20618  0.64862  1.0000
  H   H1        1.0  0.62696  0.11345  0.99996  1.0000
  N   N3        1.0  0.22933  0.13533  0.46907  1.0000
  N   N4        1.0  0.21972  0.04767  0.48153  1.0000
  H   H2        1.0  0.26473  0.00247  0.44081  1.0000
  N   N5        1.0  0.66026  0.35749  1.00000  1.0000
  N   N6        1.0  0.74931  0.36643  0.99999  1.0000
  H   H3        1.0  0.78250  0.43210  0.99998  1.0000
  H   H4        1.0  0.06121  0.30372  0.51926  1.0000
  N   N7        1.0  0.00738  0.70462  0.00001  1.0000
  N   N8        1.0  0.99844  0.61557  0.99999  1.0000
  H   H5        1.0  0.93277  0.58239  0.99999  1.0000
  H   H6        1.0  0.25142  0.73793  0.00003  1.0000
