data_image0
_chemical_formula_structural       V2O8V2O12C42N4C2N4C20H32V2O8V2O12C42N4C2N4C20H32
_chemical_formula_sum              "V8 O40 C128 N16 H64"
_cell_length_a       13.6358
_cell_length_b       17.983
_cell_length_c       19.4531
_cell_angle_alpha    96.1257
_cell_angle_beta     101.709
_cell_angle_gamma    102.452

_space_group_name_H-M_alt    "P 1"
_space_group_IT_number       1

loop_
  _space_group_symop_operation_xyz
  'x, y, z'

loop_
  _atom_site_type_symbol
  _atom_site_label
  _atom_site_symmetry_multiplicity
  _atom_site_fract_x
  _atom_site_fract_y
  _atom_site_fract_z
  _atom_site_occupancy
  V   V1        1.0  0.49916  0.89379  0.78071  1.0000
  V   V2        1.0  0.24916  0.39379  0.28071  1.0000
  O   O1        1.0  0.00253  0.00429  0.78518  1.0000
  O   O2        1.0  0.25253  0.50429  0.28518  1.0000
  O   O3        1.0  0.02585  0.79019  0.78191  1.0000
  O   O4        1.0  0.27585  0.29019  0.28192  1.0000
  O   O5        1.0  0.02767  0.89507  0.68520  1.0000
  O   O6        1.0  0.27767  0.39507  0.18520  1.0000
  O   O7        1.0  0.00069  0.89869  0.88257  1.0000
  O   O8        1.0  0.25069  0.39869  0.38257  1.0000
  V   V3        1.0  0.25646  0.90705  0.79292  1.0000
  V   V4        1.0  0.00646  0.40705  0.29292  1.0000
  O   O9        1.0  0.37058  0.86471  0.75390  1.0000
  O   O10       1.0  0.12058  0.36471  0.25390  1.0000
  O   O11       1.0  0.15994  0.93614  0.81973  1.0000
  O   O12       1.0  0.40994  0.43614  0.31973  1.0000
  O   O13       1.0  0.34137  0.01065  0.79172  1.0000
  O   O14       1.0  0.09137  0.51065  0.29172  1.0000
  O   O15       1.0  0.19440  0.79656  0.78845  1.0000
  O   O16       1.0  0.44440  0.29656  0.28845  1.0000
  O   O17       1.0  0.19623  0.90216  0.69106  1.0000
  O   O18       1.0  0.44623  0.40216  0.19106  1.0000
  O   O19       1.0  0.33955  0.90578  0.88843  1.0000
  O   O20       1.0  0.08955  0.40578  0.38843  1.0000
  C   C1        1.0  0.10382  0.76495  0.78530  1.0000
  C   C2        1.0  0.35382  0.26495  0.28530  1.0000
  C   C3        1.0  0.08503  0.68026  0.78565  1.0000
  C   C4        1.0  0.33503  0.18025  0.28565  1.0000
  C   C5        1.0  0.10614  0.89873  0.66193  1.0000
  C   C6        1.0  0.35614  0.39873  0.16193  1.0000
  C   C7        1.0  0.08882  0.89909  0.58384  1.0000
  C   C8        1.0  0.33882  0.39909  0.08384  1.0000
  C   C9        1.0  0.48540  0.63657  0.78230  1.0000
  C   C10       1.0  0.23540  0.13657  0.28230  1.0000
  C   C11       1.0  0.46775  0.55699  0.78263  1.0000
  C   C12       1.0  0.21775  0.05699  0.28263  1.0000
  C   C13       1.0  0.04973  0.52110  0.78631  1.0000
  C   C14       1.0  0.29973  0.02110  0.28631  1.0000
  C   C15       1.0  0.14936  0.56478  0.78966  1.0000
  C   C16       1.0  0.39936  0.06479  0.28966  1.0000
  C   C17       1.0  0.16701  0.64436  0.78933  1.0000
  C   C18       1.0  0.41701  0.14436  0.28933  1.0000
  C   C19       1.0  0.07819  0.24385  0.79100  1.0000
  C   C20       1.0  0.32819  0.74385  0.29100  1.0000
  C   C21       1.0  0.06054  0.16427  0.79133  1.0000
  C   C22       1.0  0.31054  0.66427  0.29133  1.0000
  C   C23       1.0  0.37893  0.15648  0.78430  1.0000
  C   C24       1.0  0.12893  0.65648  0.28430  1.0000
  C   C25       1.0  0.39658  0.23606  0.78397  1.0000
  C   C26       1.0  0.14658  0.73606  0.28397  1.0000
  C   C27       1.0  0.49621  0.27974  0.78731  1.0000
  C   C28       1.0  0.24621  0.77974  0.28731  1.0000
  C   C29       1.0  0.01535  0.36603  0.78695  1.0000
  C   C30       1.0  0.26535  0.86603  0.28696  1.0000
  C   C31       1.0  0.03059  0.43481  0.78667  1.0000
  C   C32       1.0  0.28059  0.93481  0.28667  1.0000
  C   C33       1.0  0.48989  0.89543  0.54358  1.0000
  C   C34       1.0  0.23989  0.39543  0.04358  1.0000
  C   C35       1.0  0.47362  0.89577  0.47021  1.0000
  C   C36       1.0  0.22362  0.39577  0.97021  1.0000
  C   C37       1.0  0.05629  0.89974  0.43711  1.0000
  C   C38       1.0  0.30629  0.39974  0.93711  1.0000
  C   C39       1.0  0.15524  0.90340  0.47739  1.0000
  C   C40       1.0  0.40524  0.40340  0.97739  1.0000
  C   C41       1.0  0.17151  0.90308  0.55076  1.0000
  C   C42       1.0  0.42151  0.40308  0.05076  1.0000
  N   N1        1.0  0.08713  0.85951  0.31821  1.0000
  N   N2        1.0  0.33713  0.35951  0.81821  1.0000
  N   N3        1.0  0.07167  0.85982  0.24852  1.0000
  N   N4        1.0  0.32167  0.35982  0.74852  1.0000
  C   C43       1.0  0.00728  0.90073  0.21607  1.0000
  C   C44       1.0  0.25728  0.40073  0.71607  1.0000
  N   N5        1.0  0.45892  0.94132  0.25594  1.0000
  N   N6        1.0  0.20892  0.44132  0.75594  1.0000
  N   N7        1.0  0.47438  0.94100  0.32564  1.0000
  N   N8        1.0  0.22438  0.44100  0.82564  1.0000
  C   C45       1.0  0.03866  0.90010  0.35756  1.0000
  C   C46       1.0  0.28866  0.40010  0.85756  1.0000
  C   C47       1.0  0.39070  0.89744  0.09625  1.0000
  C   C48       1.0  0.14070  0.39744  0.59625  1.0000
  C   C49       1.0  0.37444  0.89778  0.02288  1.0000
  C   C50       1.0  0.12444  0.39778  0.52288  1.0000
  C   C51       1.0  0.05606  0.90541  0.03006  1.0000
  C   C52       1.0  0.30606  0.40541  0.53006  1.0000
  C   C53       1.0  0.07232  0.90508  0.10343  1.0000
  C   C54       1.0  0.32232  0.40508  0.60343  1.0000
  C   C55       1.0  0.48964  0.90109  0.13652  1.0000
  C   C56       1.0  0.23964  0.40109  0.63652  1.0000
  C   C57       1.0  0.43174  0.03589  0.78833  1.0000
  C   C58       1.0  0.18174  0.53589  0.28833  1.0000
  C   C59       1.0  0.46091  0.12058  0.78798  1.0000
  C   C60       1.0  0.21091  0.62059  0.28798  1.0000
  C   C61       1.0  0.42942  0.90211  0.91171  1.0000
  C   C62       1.0  0.17942  0.40211  0.41171  1.0000
  C   C63       1.0  0.45711  0.90176  0.98979  1.0000
  C   C64       1.0  0.20711  0.40176  0.48979  1.0000
  H   H1        1.0  0.41864  0.66579  0.77931  1.0000
  H   H2        1.0  0.16864  0.16579  0.27931  1.0000
  H   H3        1.0  0.38662  0.52143  0.77990  1.0000
  H   H4        1.0  0.13662  0.02143  0.27990  1.0000
  H   H5        1.0  0.29780  0.12091  0.78158  1.0000
  H   H6        1.0  0.04780  0.62091  0.28158  1.0000
  H   H7        1.0  0.32982  0.26528  0.78097  1.0000
  H   H8        1.0  0.07982  0.76528  0.28097  1.0000
  H   H9        1.0  0.12730  0.13505  0.79432  1.0000
  H   H10       1.0  0.37730  0.63505  0.29432  1.0000
  H   H11       1.0  0.15932  0.27941  0.79372  1.0000
  H   H12       1.0  0.40932  0.77941  0.29372  1.0000
  H   H13       1.0  0.21611  0.53555  0.79265  1.0000
  H   H14       1.0  0.46611  0.03555  0.29265  1.0000
  H   H15       1.0  0.12337  0.90866  0.00312  1.0000
  H   H16       1.0  0.37337  0.40866  0.50312  1.0000
  H   H17       1.0  0.24814  0.67993  0.79205  1.0000
  H   H18       1.0  0.49814  0.17993  0.29205  1.0000
  H   H19       1.0  0.42257  0.89219  0.57051  1.0000
  H   H20       1.0  0.17257  0.39219  0.07051  1.0000
  H   H21       1.0  0.39306  0.89278  0.43742  1.0000
  H   H22       1.0  0.14306  0.39278  0.93742  1.0000
  H   H23       1.0  0.22255  0.90664  0.45044  1.0000
  H   H24       1.0  0.47255  0.40664  0.95044  1.0000
  H   H25       1.0  0.25207  0.90606  0.58354  1.0000
  H   H26       1.0  0.00207  0.40606  0.08354  1.0000
  H   H27       1.0  0.32338  0.89420  0.12319  1.0000
  H   H28       1.0  0.07338  0.39420  0.62319  1.0000
  H   H29       1.0  0.15288  0.90805  0.13621  1.0000
  H   H30       1.0  0.40288  0.40805  0.63621  1.0000
  H   H31       1.0  0.29388  0.89481  0.99010  1.0000
  H   H32       1.0  0.04388  0.39481  0.49010  1.0000
  V   V5        1.0  0.99916  0.89379  0.78071  1.0000
  V   V6        1.0  0.74916  0.39379  0.28071  1.0000
  O   O21       1.0  0.50253  0.00429  0.78518  1.0000
  O   O22       1.0  0.75253  0.50429  0.28518  1.0000
  O   O23       1.0  0.52585  0.79019  0.78191  1.0000
  O   O24       1.0  0.77585  0.29019  0.28192  1.0000
  O   O25       1.0  0.52767  0.89507  0.68520  1.0000
  O   O26       1.0  0.77767  0.39507  0.18520  1.0000
  O   O27       1.0  0.50069  0.89869  0.88257  1.0000
  O   O28       1.0  0.75069  0.39869  0.38257  1.0000
  V   V7        1.0  0.75646  0.90705  0.79292  1.0000
  V   V8        1.0  0.50646  0.40705  0.29292  1.0000
  O   O29       1.0  0.87058  0.86471  0.75390  1.0000
  O   O30       1.0  0.62058  0.36471  0.25390  1.0000
  O   O31       1.0  0.65994  0.93614  0.81973  1.0000
  O   O32       1.0  0.90994  0.43614  0.31973  1.0000
  O   O33       1.0  0.84137  0.01065  0.79172  1.0000
  O   O34       1.0  0.59137  0.51065  0.29172  1.0000
  O   O35       1.0  0.69440  0.79656  0.78845  1.0000
  O   O36       1.0  0.94440  0.29656  0.28845  1.0000
  O   O37       1.0  0.69623  0.90216  0.69106  1.0000
  O   O38       1.0  0.94623  0.40216  0.19106  1.0000
  O   O39       1.0  0.83955  0.90578  0.88843  1.0000
  O   O40       1.0  0.58955  0.40578  0.38843  1.0000
  C   C65       1.0  0.60382  0.76495  0.78530  1.0000
  C   C66       1.0  0.85382  0.26495  0.28530  1.0000
  C   C67       1.0  0.58503  0.68026  0.78565  1.0000
  C   C68       1.0  0.83503  0.18025  0.28565  1.0000
  C   C69       1.0  0.60614  0.89873  0.66193  1.0000
  C   C70       1.0  0.85614  0.39873  0.16193  1.0000
  C   C71       1.0  0.58882  0.89909  0.58384  1.0000
  C   C72       1.0  0.83883  0.39909  0.08384  1.0000
  C   C73       1.0  0.98540  0.63657  0.78230  1.0000
  C   C74       1.0  0.73540  0.13657  0.28230  1.0000
  C   C75       1.0  0.96775  0.55699  0.78263  1.0000
  C   C76       1.0  0.71775  0.05699  0.28263  1.0000
  C   C77       1.0  0.54973  0.52110  0.78631  1.0000
  C   C78       1.0  0.79973  0.02110  0.28631  1.0000
  C   C79       1.0  0.64936  0.56478  0.78966  1.0000
  C   C80       1.0  0.89936  0.06479  0.28966  1.0000
  C   C81       1.0  0.66701  0.64436  0.78933  1.0000
  C   C82       1.0  0.91701  0.14436  0.28933  1.0000
  C   C83       1.0  0.57819  0.24385  0.79100  1.0000
  C   C84       1.0  0.82819  0.74385  0.29100  1.0000
  C   C85       1.0  0.56054  0.16427  0.79133  1.0000
  C   C86       1.0  0.81054  0.66427  0.29133  1.0000
  C   C87       1.0  0.87893  0.15648  0.78430  1.0000
  C   C88       1.0  0.62893  0.65648  0.28430  1.0000
  C   C89       1.0  0.89658  0.23606  0.78397  1.0000
  C   C90       1.0  0.64658  0.73606  0.28397  1.0000
  C   C91       1.0  0.99621  0.27974  0.78731  1.0000
  C   C92       1.0  0.74621  0.77974  0.28731  1.0000
  C   C93       1.0  0.51535  0.36603  0.78695  1.0000
  C   C94       1.0  0.76535  0.86603  0.28696  1.0000
  C   C95       1.0  0.53059  0.43481  0.78667  1.0000
  C   C96       1.0  0.78059  0.93481  0.28667  1.0000
  C   C97       1.0  0.98989  0.89543  0.54358  1.0000
  C   C98       1.0  0.73989  0.39543  0.04358  1.0000
  C   C99       1.0  0.97362  0.89577  0.47021  1.0000
  C   C100      1.0  0.72362  0.39577  0.97021  1.0000
  C   C101      1.0  0.55629  0.89974  0.43711  1.0000
  C   C102      1.0  0.80629  0.39974  0.93711  1.0000
  C   C103      1.0  0.65524  0.90340  0.47739  1.0000
  C   C104      1.0  0.90524  0.40340  0.97739  1.0000
  C   C105      1.0  0.67151  0.90308  0.55076  1.0000
  C   C106      1.0  0.92151  0.40308  0.05076  1.0000
  N   N9        1.0  0.58713  0.85951  0.31821  1.0000
  N   N10       1.0  0.83713  0.35951  0.81821  1.0000
  N   N11       1.0  0.57167  0.85982  0.24852  1.0000
  N   N12       1.0  0.82167  0.35982  0.74852  1.0000
  C   C107      1.0  0.50728  0.90073  0.21607  1.0000
  C   C108      1.0  0.75728  0.40073  0.71607  1.0000
  N   N13       1.0  0.95892  0.94132  0.25594  1.0000
  N   N14       1.0  0.70892  0.44132  0.75594  1.0000
  N   N15       1.0  0.97438  0.94100  0.32564  1.0000
  N   N16       1.0  0.72438  0.44100  0.82564  1.0000
  C   C109      1.0  0.53866  0.90010  0.35756  1.0000
  C   C110      1.0  0.78866  0.40010  0.85756  1.0000
  C   C111      1.0  0.89070  0.89744  0.09625  1.0000
  C   C112      1.0  0.64070  0.39744  0.59625  1.0000
  C   C113      1.0  0.87444  0.89778  0.02288  1.0000
  C   C114      1.0  0.62444  0.39778  0.52288  1.0000
  C   C115      1.0  0.55606  0.90541  0.03006  1.0000
  C   C116      1.0  0.80606  0.40541  0.53006  1.0000
  C   C117      1.0  0.57232  0.90508  0.10343  1.0000
  C   C118      1.0  0.82232  0.40508  0.60343  1.0000
  C   C119      1.0  0.98964  0.90109  0.13652  1.0000
  C   C120      1.0  0.73964  0.40109  0.63652  1.0000
  C   C121      1.0  0.93174  0.03589  0.78833  1.0000
  C   C122      1.0  0.68174  0.53589  0.28833  1.0000
  C   C123      1.0  0.96091  0.12058  0.78798  1.0000
  C   C124      1.0  0.71091  0.62059  0.28798  1.0000
  C   C125      1.0  0.92942  0.90211  0.91171  1.0000
  C   C126      1.0  0.67942  0.40211  0.41171  1.0000
  C   C127      1.0  0.95711  0.90176  0.98979  1.0000
  C   C128      1.0  0.70711  0.40176  0.48979  1.0000
  H   H33       1.0  0.91864  0.66579  0.77931  1.0000
  H   H34       1.0  0.66864  0.16579  0.27931  1.0000
  H   H35       1.0  0.88662  0.52143  0.77990  1.0000
  H   H36       1.0  0.63662  0.02143  0.27990  1.0000
  H   H37       1.0  0.79780  0.12091  0.78158  1.0000
  H   H38       1.0  0.54780  0.62091  0.28158  1.0000
  H   H39       1.0  0.82982  0.26528  0.78097  1.0000
  H   H40       1.0  0.57982  0.76528  0.28097  1.0000
  H   H41       1.0  0.62730  0.13505  0.79432  1.0000
  H   H42       1.0  0.87730  0.63505  0.29432  1.0000
  H   H43       1.0  0.65932  0.27941  0.79372  1.0000
  H   H44       1.0  0.90932  0.77941  0.29372  1.0000
  H   H45       1.0  0.71611  0.53555  0.79265  1.0000
  H   H46       1.0  0.96611  0.03555  0.29265  1.0000
  H   H47       1.0  0.62337  0.90866  0.00312  1.0000
  H   H48       1.0  0.87337  0.40866  0.50312  1.0000
  H   H49       1.0  0.74814  0.67993  0.79205  1.0000
  H   H50       1.0  0.99814  0.17993  0.29205  1.0000
  H   H51       1.0  0.92257  0.89219  0.57051  1.0000
  H   H52       1.0  0.67257  0.39219  0.07051  1.0000
  H   H53       1.0  0.89306  0.89278  0.43742  1.0000
  H   H54       1.0  0.64306  0.39278  0.93742  1.0000
  H   H55       1.0  0.72255  0.90664  0.45044  1.0000
  H   H56       1.0  0.97255  0.40664  0.95044  1.0000
  H   H57       1.0  0.75207  0.90606  0.58354  1.0000
  H   H58       1.0  0.50207  0.40606  0.08354  1.0000
  H   H59       1.0  0.82338  0.89420  0.12319  1.0000
  H   H60       1.0  0.57338  0.39420  0.62319  1.0000
  H   H61       1.0  0.65288  0.90805  0.13621  1.0000
  H   H62       1.0  0.90288  0.40805  0.63621  1.0000
  H   H63       1.0  0.79388  0.89481  0.99010  1.0000
  H   H64       1.0  0.54388  0.39481  0.49010  1.0000
