data_image0
_chemical_formula_structural       O7Cu2OC2NC18NC12HC2H5C2H8C2H10C2H8
_chemical_formula_sum              "O8 Cu2 C40 N2 H32"
_cell_length_a       14.9715
_cell_length_b       12.9965
_cell_length_c       14.9715
_cell_angle_alpha    89.9995
_cell_angle_beta     96.3859
_cell_angle_gamma    90.0013

_space_group_name_H-M_alt    "P 1"
_space_group_IT_number       1

loop_
  _space_group_symop_operation_xyz
  'x, y, z'

loop_
  _atom_site_type_symbol
  _atom_site_label
  _atom_site_symmetry_multiplicity
  _atom_site_fract_x
  _atom_site_fract_y
  _atom_site_fract_z
  _atom_site_occupancy
  O   O1        1.0  0.18695  0.08545  0.88344  1.0000
  O   O2        1.0  0.92655  0.08548  0.86949  1.0000
  O   O3        1.0  0.06373  0.08546  0.00666  1.0000
  O   O4        1.0  0.04977  0.08547  0.74626  1.0000
  O   O5        1.0  0.06371  0.91432  0.00666  1.0000
  O   O6        1.0  0.92653  0.91434  0.86948  1.0000
  O   O7        1.0  0.18693  0.91431  0.88343  1.0000
  Cu  Cu1       1.0  0.05673  0.89870  0.87645  1.0000
  Cu  Cu2       1.0  0.05675  0.10109  0.87646  1.0000
  O   O8        1.0  0.04975  0.91434  0.74626  1.0000
  C   C1        1.0  0.89321  0.99991  0.87011  1.0000
  C   C2        1.0  0.79392  0.99992  0.87198  1.0000
  N   N1        1.0  0.05672  0.75636  0.87645  1.0000
  C   C3        1.0  0.73669  0.99993  0.79139  1.0000
  C   C4        1.0  0.64339  0.99991  0.79315  1.0000
  C   C5        1.0  0.60732  0.99990  0.87550  1.0000
  C   C6        1.0  0.66455  0.99989  0.95610  1.0000
  C   C7        1.0  0.75785  0.99990  0.95433  1.0000
  C   C8        1.0  0.47009  0.99988  0.95977  1.0000
  C   C9        1.0  0.37679  0.99987  0.96153  1.0000
  C   C10       1.0  0.35563  0.99989  0.79858  1.0000
  C   C11       1.0  0.44893  0.99990  0.79682  1.0000
  C   C12       1.0  0.50616  0.99989  0.87742  1.0000
  C   C13       1.0  0.05672  0.66325  0.87645  1.0000
  C   C14       1.0  0.05673  0.54645  0.87645  1.0000
  C   C15       1.0  0.05674  0.45335  0.87646  1.0000
  C   C16       1.0  0.05675  0.33653  0.87647  1.0000
  C   C17       1.0  0.22026  0.99988  0.88282  1.0000
  C   C18       1.0  0.31956  0.99988  0.88094  1.0000
  C   C19       1.0  0.06309  0.99989  0.03999  1.0000
  C   C20       1.0  0.06122  0.99989  0.13928  1.0000
  N   N2        1.0  0.05676  0.24344  0.87648  1.0000
  C   C21       1.0  0.05038  0.99991  0.71293  1.0000
  C   C22       1.0  0.05225  0.99991  0.61364  1.0000
  C   C23       1.0  0.14181  0.99988  0.19651  1.0000
  C   C24       1.0  0.14005  0.99989  0.28981  1.0000
  C   C25       1.0  0.05770  0.99990  0.32588  1.0000
  C   C26       1.0  0.97710  0.99992  0.26865  1.0000
  C   C27       1.0  0.97886  0.99991  0.17535  1.0000
  C   C28       1.0  0.97343  0.99992  0.46311  1.0000
  C   C29       1.0  0.97166  0.99992  0.55641  1.0000
  C   C30       1.0  0.13461  0.99990  0.57757  1.0000
  C   C31       1.0  0.13638  0.99990  0.48427  1.0000
  C   C32       1.0  0.05578  0.99991  0.42704  1.0000
  H   H1        1.0  0.76605  0.99994  0.72432  1.0000
  C   C33       1.0  0.30129  0.99984  0.30134  1.0000
  C   C34       1.0  0.22864  0.99987  0.35271  1.0000
  H   H2        1.0  0.35598  0.99982  0.34018  1.0000
  H   H3        1.0  0.29860  0.05952  0.26452  1.0000
  H   H4        1.0  0.29857  0.94016  0.26451  1.0000
  H   H5        1.0  0.23135  0.05956  0.38954  1.0000
  H   H6        1.0  0.23133  0.94019  0.38955  1.0000
  C   C35       1.0  0.81762  0.99993  0.16380  1.0000
  C   C36       1.0  0.89028  0.99992  0.11244  1.0000
  H   H7        1.0  0.76293  0.99993  0.12497  1.0000
  H   H8        1.0  0.82033  0.05960  0.20063  1.0000
  H   H9        1.0  0.82032  0.94024  0.20064  1.0000
  H   H10       1.0  0.88758  0.05961  0.07562  1.0000
  H   H11       1.0  0.88757  0.94024  0.07560  1.0000
  H   H12       1.0  0.20344  0.99988  0.45490  1.0000
  H   H13       1.0  0.63517  0.99987  0.02315  1.0000
  H   H14       1.0  0.34742  0.99986  0.02859  1.0000
  C   C37       1.0  0.63185  0.99994  0.63191  1.0000
  C   C38       1.0  0.58049  0.99992  0.70456  1.0000
  H   H15       1.0  0.59302  0.99995  0.57722  1.0000
  H   H16       1.0  0.66868  0.94027  0.63460  1.0000
  H   H17       1.0  0.66868  0.05963  0.63462  1.0000
  H   H18       1.0  0.54367  0.94023  0.70185  1.0000
  H   H19       1.0  0.54364  0.05960  0.70187  1.0000
  H   H20       1.0  0.51668  0.99987  0.02540  1.0000
  H   H21       1.0  0.80444  0.99990  0.01996  1.0000
  H   H22       1.0  0.20024  0.99989  0.62416  1.0000
  H   H23       1.0  0.47830  0.99992  0.72976  1.0000
  H   H24       1.0  0.90461  0.99991  0.58578  1.0000
  C   C39       1.0  0.23833  0.08784  0.10386  1.0000
  C   C40       1.0  0.23234  0.99987  0.15686  1.0000
  H   H25       1.0  0.29422  0.08783  0.07938  1.0000
  H   H26       1.0  0.23427  0.14750  0.13981  1.0000
  H   H27       1.0  0.19058  0.08783  0.05642  1.0000
  H   H28       1.0  0.28008  0.99988  0.20429  1.0000
  H   H29       1.0  0.23641  0.94018  0.12090  1.0000
  H   H30       1.0  0.30903  0.99989  0.73296  1.0000
  H   H31       1.0  0.90780  0.99993  0.41652  1.0000
  H   H32       1.0  0.91005  0.99993  0.29802  1.0000
