data_image0
_chemical_formula_structural       O7Cu2OC34N2C16H2Cl8H3ClH3ClHCl3HClH3Cl3
_chemical_formula_sum              "O8 Cu2 C50 N2 H13 Cl17"
_cell_length_a       19.2889
_cell_length_b       15.9446
_cell_length_c       17.7663
_cell_angle_alpha    89.9927
_cell_angle_beta     89.9768
_cell_angle_gamma    83.3175

_space_group_name_H-M_alt    "P 1"
_space_group_IT_number       1

loop_
  _space_group_symop_operation_xyz
  'x, y, z'

loop_
  _atom_site_type_symbol
  _atom_site_label
  _atom_site_symmetry_multiplicity
  _atom_site_fract_x
  _atom_site_fract_y
  _atom_site_fract_z
  _atom_site_occupancy
  O   O1        1.0  0.92163  0.10478  0.93716  1.0000
  O   O2        1.0  0.71941  0.11892  0.93721  1.0000
  O   O3        1.0  0.82604  0.98955  0.93719  1.0000
  O   O4        1.0  0.81500  0.23415  0.93718  1.0000
  O   O5        1.0  0.82602  0.98955  0.06238  1.0000
  O   O6        1.0  0.71939  0.11891  0.06240  1.0000
  O   O7        1.0  0.92161  0.10478  0.06235  1.0000
  Cu  Cu1       1.0  0.82050  0.11184  0.07381  1.0000
  Cu  Cu2       1.0  0.82052  0.11185  0.92576  1.0000
  O   O8        1.0  0.81498  0.23414  0.06237  1.0000
  C   C1        1.0  0.69352  0.11846  0.99982  1.0000
  C   C2        1.0  0.61641  0.11710  0.99984  1.0000
  C   C3        1.0  0.57191  0.19300  0.99982  1.0000
  C   C4        1.0  0.49947  0.19172  0.99981  1.0000
  C   C5        1.0  0.47151  0.11453  0.99980  1.0000
  C   C6        1.0  0.51602  0.03861  0.99982  1.0000
  C   C7        1.0  0.58847  0.03990  0.99984  1.0000
  C   C8        1.0  0.36310  0.05385  0.95592  1.0000
  C   C9        1.0  0.29065  0.05257  0.95590  1.0000
  C   C10       1.0  0.24806  0.11056  0.99976  1.0000
  C   C11       1.0  0.27792  0.16985  0.04362  1.0000
  C   C12       1.0  0.35037  0.17114  0.04364  1.0000
  C   C13       1.0  0.39296  0.11312  0.99979  1.0000
  C   C14       1.0  0.12500  0.18508  0.99974  1.0000
  C   C15       1.0  0.05255  0.18379  0.99973  1.0000
  C   C16       1.0  0.06911  0.03068  0.99974  1.0000
  C   C17       1.0  0.14156  0.03197  0.99975  1.0000
  C   C18       1.0  0.16950  0.10917  0.99974  1.0000
  C   C19       1.0  0.82557  0.95826  0.99979  1.0000
  C   C20       1.0  0.82420  0.86502  0.99979  1.0000
  C   C21       1.0  0.75482  0.65043  0.99980  1.0000
  C   C22       1.0  0.78702  0.58928  0.06151  1.0000
  C   C23       1.0  0.82171  0.69430  0.99978  1.0000
  C   C24       1.0  0.78706  0.58931  0.93809  1.0000
  C   C25       1.0  0.81930  0.52940  0.99978  1.0000
  C   C26       1.0  0.85394  0.63439  0.06155  1.0000
  C   C27       1.0  0.85396  0.63441  0.93807  1.0000
  C   C28       1.0  0.88622  0.57329  0.99980  1.0000
  C   C29       1.0  0.82310  0.78930  0.99979  1.0000
  C   C30       1.0  0.81792  0.43440  0.99978  1.0000
  C   C31       1.0  0.94750  0.10523  0.99975  1.0000
  C   C32       1.0  0.02460  0.10660  0.99972  1.0000
  C   C33       1.0  0.81544  0.26544  0.99977  1.0000
  C   C34       1.0  0.81682  0.35868  0.99977  1.0000
  N   N1        1.0  0.82049  0.11184  0.17794  1.0000
  N   N2        1.0  0.82054  0.11185  0.82163  1.0000
  C   C35       1.0  0.86772  0.05458  0.21732  1.0000
  C   C36       1.0  0.86772  0.05458  0.29612  1.0000
  C   C37       1.0  0.82050  0.11184  0.33554  1.0000
  C   C38       1.0  0.77326  0.16910  0.29615  1.0000
  C   C39       1.0  0.77325  0.16910  0.21735  1.0000
  C   C40       1.0  0.81140  0.18838  0.46037  1.0000
  C   C41       1.0  0.81142  0.18838  0.53917  1.0000
  C   C42       1.0  0.82052  0.11185  0.57859  1.0000
  C   C43       1.0  0.82963  0.03532  0.53919  1.0000
  C   C44       1.0  0.82962  0.03532  0.46039  1.0000
  C   C45       1.0  0.82050  0.11185  0.42098  1.0000
  C   C46       1.0  0.86776  0.05459  0.70341  1.0000
  C   C47       1.0  0.86776  0.05459  0.78221  1.0000
  C   C48       1.0  0.77330  0.16912  0.78224  1.0000
  C   C49       1.0  0.77330  0.16911  0.70344  1.0000
  C   C50       1.0  0.82053  0.11185  0.66403  1.0000
  H   H1        1.0  0.24324  0.21707  0.07934  1.0000
  H   H2        1.0  0.90622  0.00796  0.67132  1.0000
  Cl  Cl1       1.0  0.97202  0.52176  0.99983  1.0000
  Cl  Cl2       1.0  0.92711  0.98260  0.34563  1.0000
  Cl  Cl3       1.0  0.89762  0.66534  0.85749  1.0000
  Cl  Cl4       1.0  0.92714  0.98260  0.83172  1.0000
  Cl  Cl5       1.0  0.74337  0.55846  0.85754  1.0000
  Cl  Cl6       1.0  0.60704  0.29005  0.99982  1.0000
  Cl  Cl7       1.0  0.71389  0.24109  0.34571  1.0000
  Cl  Cl8       1.0  0.64441  0.94446  0.99986  1.0000
  H   H3        1.0  0.73484  0.21574  0.67138  1.0000
  H   H4        1.0  0.80398  0.25070  0.42829  1.0000
  H   H5        1.0  0.46323  0.25353  0.99980  1.0000
  Cl  Cl9       1.0  0.25312  0.97804  0.90075  1.0000
  H   H6        1.0  0.39777  0.00662  0.92020  1.0000
  H   H7        1.0  0.80401  0.25070  0.57124  1.0000
  H   H8        1.0  0.90618  0.00796  0.18523  1.0000
  Cl  Cl10      1.0  0.03398  0.93364  0.99973  1.0000
  H   H9        1.0  0.49326  0.97576  0.99981  1.0000
  Cl  Cl11      1.0  0.66909  0.70218  0.99991  1.0000
  Cl  Cl12      1.0  0.84106  0.93910  0.41086  1.0000
  Cl  Cl13      1.0  0.19750  0.93654  0.99976  1.0000
  H   H10       1.0  0.37468  0.21941  0.07936  1.0000
  Cl  Cl14      1.0  0.74333  0.55840  0.14209  1.0000
  H   H11       1.0  0.83704  0.97300  0.57127  1.0000
  H   H12       1.0  0.14775  0.24794  0.99974  1.0000
  H   H13       1.0  0.73479  0.21572  0.18529  1.0000
  Cl  Cl15      1.0  0.99661  0.27923  0.99972  1.0000
  Cl  Cl16      1.0  0.89758  0.66507  0.14220  1.0000
  Cl  Cl17      1.0  0.71393  0.24110  0.83180  1.0000
