data_image0
_chemical_formula_structural       Zn16O52C96
_chemical_formula_sum              "Zn16 O52 C96"
_cell_length_a       16.6255
_cell_length_b       16.6255
_cell_length_c       16.6255
_cell_angle_alpha    90.0264
_cell_angle_beta     90.0188
_cell_angle_gamma    90.0239

_space_group_name_H-M_alt    "P 1"
_space_group_IT_number       1

loop_
  _space_group_symop_operation_xyz
  'x, y, z'

loop_
  _atom_site_type_symbol
  _atom_site_label
  _atom_site_symmetry_multiplicity
  _atom_site_fract_x
  _atom_site_fract_y
  _atom_site_fract_z
  _atom_site_occupancy
  Zn  Zn1       1.0  0.76736  0.32102  0.54405  1.0000
  Zn  Zn2       1.0  0.01736  0.57102  0.79405  1.0000
  Zn  Zn3       1.0  0.26736  0.82102  0.04405  1.0000
  Zn  Zn4       1.0  0.51736  0.07102  0.29405  1.0000
  Zn  Zn5       1.0  0.76745  0.45586  0.67888  1.0000
  Zn  Zn6       1.0  0.01745  0.70586  0.92888  1.0000
  Zn  Zn7       1.0  0.26745  0.95586  0.17888  1.0000
  Zn  Zn8       1.0  0.51745  0.20586  0.42889  1.0000
  Zn  Zn9       1.0  0.90219  0.32104  0.67888  1.0000
  Zn  Zn10      1.0  0.15219  0.57104  0.92888  1.0000
  Zn  Zn11      1.0  0.40219  0.82104  0.17888  1.0000
  Zn  Zn12      1.0  0.65219  0.07104  0.42888  1.0000
  Zn  Zn13      1.0  0.90223  0.45581  0.54410  1.0000
  Zn  Zn14      1.0  0.15223  0.70581  0.79410  1.0000
  Zn  Zn15      1.0  0.40223  0.95581  0.04410  1.0000
  Zn  Zn16      1.0  0.65223  0.20581  0.29410  1.0000
  O   O1        1.0  0.83481  0.38843  0.61148  1.0000
  O   O2        1.0  0.08481  0.63843  0.86148  1.0000
  O   O3        1.0  0.33481  0.88843  0.11148  1.0000
  O   O4        1.0  0.58481  0.13843  0.36148  1.0000
  O   O5        1.0  0.65454  0.33891  0.56192  1.0000
  O   O6        1.0  0.90454  0.58891  0.81192  1.0000
  O   O7        1.0  0.15454  0.83891  0.06192  1.0000
  O   O8        1.0  0.40454  0.08891  0.31192  1.0000
  O   O9        1.0  0.78534  0.43800  0.79172  1.0000
  O   O10       1.0  0.03534  0.68800  0.04172  1.0000
  O   O11       1.0  0.28534  0.93800  0.29172  1.0000
  O   O12       1.0  0.53534  0.18800  0.54172  1.0000
  O   O13       1.0  0.88424  0.20821  0.66097  1.0000
  O   O14       1.0  0.13424  0.45821  0.91097  1.0000
  O   O15       1.0  0.38424  0.70821  0.16097  1.0000
  O   O16       1.0  0.63424  0.95821  0.41097  1.0000
  O   O17       1.0  0.65460  0.43798  0.66098  1.0000
  O   O18       1.0  0.90460  0.68798  0.91098  1.0000
  O   O19       1.0  0.15460  0.93798  0.16098  1.0000
  O   O20       1.0  0.40460  0.18798  0.41098  1.0000
  O   O21       1.0  0.78519  0.20819  0.56191  1.0000
  O   O22       1.0  0.03519  0.45819  0.81191  1.0000
  O   O23       1.0  0.28519  0.70819  0.06191  1.0000
  O   O24       1.0  0.53519  0.95819  0.31191  1.0000
  O   O25       1.0  0.88433  0.33895  0.79171  1.0000
  O   O26       1.0  0.13433  0.58895  0.04171  1.0000
  O   O27       1.0  0.38433  0.83895  0.29171  1.0000
  O   O28       1.0  0.63433  0.08895  0.54171  1.0000
  O   O29       1.0  0.01502  0.33891  0.66101  1.0000
  O   O30       1.0  0.26502  0.58891  0.91101  1.0000
  O   O31       1.0  0.51502  0.83891  0.16101  1.0000
  O   O32       1.0  0.76502  0.08891  0.41101  1.0000
  O   O33       1.0  0.88432  0.43790  0.43126  1.0000
  O   O34       1.0  0.13432  0.68790  0.68126  1.0000
  O   O35       1.0  0.38432  0.93790  0.93126  1.0000
  O   O36       1.0  0.63432  0.18790  0.18126  1.0000
  O   O37       1.0  0.01506  0.43793  0.56199  1.0000
  O   O38       1.0  0.26506  0.68793  0.81199  1.0000
  O   O39       1.0  0.51506  0.93793  0.06199  1.0000
  O   O40       1.0  0.76506  0.18793  0.31199  1.0000
  O   O41       1.0  0.78523  0.33887  0.43123  1.0000
  O   O42       1.0  0.03523  0.58887  0.68123  1.0000
  O   O43       1.0  0.28523  0.83887  0.93123  1.0000
  O   O44       1.0  0.53523  0.08887  0.18123  1.0000
  O   O45       1.0  0.78538  0.56868  0.66103  1.0000
  O   O46       1.0  0.03538  0.81868  0.91103  1.0000
  O   O47       1.0  0.28538  0.06868  0.16103  1.0000
  O   O48       1.0  0.53538  0.31868  0.41103  1.0000
  O   O49       1.0  0.88441  0.56865  0.56200  1.0000
  O   O50       1.0  0.13440  0.81865  0.81200  1.0000
  O   O51       1.0  0.38440  0.06865  0.06200  1.0000
  O   O52       1.0  0.63440  0.31865  0.31200  1.0000
  C   C1        1.0  0.04430  0.38842  0.61151  1.0000
  C   C2        1.0  0.29430  0.63842  0.86151  1.0000
  C   C3        1.0  0.54430  0.88842  0.11151  1.0000
  C   C4        1.0  0.79430  0.13842  0.36151  1.0000
  C   C5        1.0  0.13392  0.38843  0.61150  1.0000
  C   C6        1.0  0.38392  0.63843  0.86150  1.0000
  C   C7        1.0  0.63392  0.88843  0.11150  1.0000
  C   C8        1.0  0.88392  0.13843  0.36150  1.0000
  C   C9        1.0  0.83489  0.59792  0.61150  1.0000
  C   C10       1.0  0.08489  0.84792  0.86150  1.0000
  C   C11       1.0  0.33489  0.09792  0.11150  1.0000
  C   C12       1.0  0.58489  0.34792  0.36150  1.0000
  C   C13       1.0  0.83485  0.68754  0.61149  1.0000
  C   C14       1.0  0.08485  0.93754  0.86149  1.0000
  C   C15       1.0  0.33485  0.18754  0.11149  1.0000
  C   C16       1.0  0.58485  0.43754  0.36149  1.0000
  C   C17       1.0  0.46209  0.38843  0.61148  1.0000
  C   C18       1.0  0.71209  0.63843  0.86148  1.0000
  C   C19       1.0  0.96209  0.88843  0.11148  1.0000
  C   C20       1.0  0.21209  0.13843  0.36148  1.0000
  C   C21       1.0  0.37078  0.38843  0.61149  1.0000
  C   C22       1.0  0.62078  0.63843  0.86149  1.0000
  C   C23       1.0  0.87078  0.88843  0.11149  1.0000
  C   C24       1.0  0.12078  0.13843  0.36149  1.0000
  C   C25       1.0  0.29801  0.38843  0.61149  1.0000
  C   C26       1.0  0.54801  0.63843  0.86149  1.0000
  C   C27       1.0  0.79801  0.88843  0.11149  1.0000
  C   C28       1.0  0.04801  0.13843  0.36149  1.0000
  C   C29       1.0  0.20669  0.38843  0.61150  1.0000
  C   C30       1.0  0.45669  0.63843  0.86150  1.0000
  C   C31       1.0  0.70669  0.88843  0.11150  1.0000
  C   C32       1.0  0.95669  0.13843  0.36150  1.0000
  C   C33       1.0  0.83476  0.38838  0.40117  1.0000
  C   C34       1.0  0.08476  0.63838  0.65117  1.0000
  C   C35       1.0  0.33476  0.88838  0.90117  1.0000
  C   C36       1.0  0.58476  0.13838  0.15117  1.0000
  C   C37       1.0  0.83475  0.38836  0.31155  1.0000
  C   C38       1.0  0.08475  0.63836  0.56155  1.0000
  C   C39       1.0  0.33475  0.88836  0.81155  1.0000
  C   C40       1.0  0.58475  0.13836  0.06155  1.0000
  C   C41       1.0  0.62450  0.38844  0.61146  1.0000
  C   C42       1.0  0.87450  0.63844  0.86146  1.0000
  C   C43       1.0  0.12450  0.88844  0.11146  1.0000
  C   C44       1.0  0.37450  0.13844  0.36146  1.0000
  C   C45       1.0  0.53487  0.38843  0.61147  1.0000
  C   C46       1.0  0.78487  0.63843  0.86147  1.0000
  C   C47       1.0  0.03488  0.88843  0.11147  1.0000
  C   C48       1.0  0.28487  0.13844  0.36147  1.0000
  C   C49       1.0  0.83472  0.01572  0.61139  1.0000
  C   C50       1.0  0.08472  0.26572  0.86139  1.0000
  C   C51       1.0  0.33472  0.51572  0.11139  1.0000
  C   C52       1.0  0.58472  0.76572  0.36139  1.0000
  C   C53       1.0  0.83476  0.92441  0.61142  1.0000
  C   C54       1.0  0.08476  0.17441  0.86142  1.0000
  C   C55       1.0  0.33476  0.42441  0.11142  1.0000
  C   C56       1.0  0.58476  0.67441  0.36142  1.0000
  C   C57       1.0  0.83478  0.85164  0.61144  1.0000
  C   C58       1.0  0.08478  0.10163  0.86144  1.0000
  C   C59       1.0  0.33478  0.35163  0.11144  1.0000
  C   C60       1.0  0.58478  0.60163  0.36144  1.0000
  C   C61       1.0  0.83482  0.76032  0.61146  1.0000
  C   C62       1.0  0.08482  0.01032  0.86146  1.0000
  C   C63       1.0  0.33482  0.26032  0.11146  1.0000
  C   C64       1.0  0.58482  0.51032  0.36146  1.0000
  C   C65       1.0  0.83471  0.17812  0.61142  1.0000
  C   C66       1.0  0.08471  0.42812  0.86142  1.0000
  C   C67       1.0  0.33471  0.67812  0.11142  1.0000
  C   C68       1.0  0.58471  0.92812  0.36142  1.0000
  C   C69       1.0  0.83468  0.08850  0.61138  1.0000
  C   C70       1.0  0.08468  0.33850  0.86138  1.0000
  C   C71       1.0  0.33468  0.58850  0.11138  1.0000
  C   C72       1.0  0.58468  0.83850  0.36138  1.0000
  C   C73       1.0  0.83474  0.38834  0.23877  1.0000
  C   C74       1.0  0.08474  0.63834  0.48877  1.0000
  C   C75       1.0  0.33474  0.88834  0.73877  1.0000
  C   C76       1.0  0.58474  0.13834  0.98877  1.0000
  C   C77       1.0  0.83472  0.38831  0.14746  1.0000
  C   C78       1.0  0.08472  0.63831  0.39746  1.0000
  C   C79       1.0  0.33472  0.88831  0.64746  1.0000
  C   C80       1.0  0.58472  0.13831  0.89746  1.0000
  C   C81       1.0  0.83470  0.38828  0.07468  1.0000
  C   C82       1.0  0.08470  0.63828  0.32468  1.0000
  C   C83       1.0  0.33470  0.88828  0.57468  1.0000
  C   C84       1.0  0.58470  0.13828  0.82468  1.0000
  C   C85       1.0  0.83468  0.38825  0.98337  1.0000
  C   C86       1.0  0.08468  0.63825  0.23337  1.0000
  C   C87       1.0  0.33468  0.88825  0.48337  1.0000
  C   C88       1.0  0.58468  0.13825  0.73337  1.0000
  C   C89       1.0  0.83480  0.38843  0.82097  1.0000
  C   C90       1.0  0.08480  0.63843  0.07097  1.0000
  C   C91       1.0  0.33480  0.88843  0.32097  1.0000
  C   C92       1.0  0.58480  0.13843  0.57097  1.0000
  C   C93       1.0  0.83466  0.38822  0.91059  1.0000
  C   C94       1.0  0.08466  0.63822  0.16059  1.0000
  C   C95       1.0  0.33466  0.88822  0.41059  1.0000
  C   C96       1.0  0.58466  0.13822  0.66059  1.0000
