data_image0
_chemical_formula_structural       Zn4O13C7N2CN2C13N2CN2C17N2CN2C8H2N2HN2HN2H3N2HN2H2N2H2N2HN2HN2H2N2H2N2HN2H3N2H2
_chemical_formula_sum              "Zn4 O13 C48 N38 H24"
_cell_length_a       21.2954
_cell_length_b       21.2954
_cell_length_c       21.2954
_cell_angle_alpha    89.9784
_cell_angle_beta     89.9563
_cell_angle_gamma    90.0463

_space_group_name_H-M_alt    "P 1"
_space_group_IT_number       1

loop_
  _space_group_symop_operation_xyz
  'x, y, z'

loop_
  _atom_site_type_symbol
  _atom_site_label
  _atom_site_symmetry_multiplicity
  _atom_site_fract_x
  _atom_site_fract_y
  _atom_site_fract_z
  _atom_site_occupancy
  Zn  Zn1       1.0  0.96236  0.74958  0.64377  1.0000
  Zn  Zn2       1.0  0.96226  0.64433  0.74904  1.0000
  Zn  Zn3       1.0  0.85708  0.74955  0.74906  1.0000
  Zn  Zn4       1.0  0.85705  0.64432  0.64385  1.0000
  O   O1        1.0  0.90968  0.69695  0.69643  1.0000
  O   O2        1.0  0.05043  0.73564  0.65769  1.0000
  O   O3        1.0  0.94828  0.65828  0.83713  1.0000
  O   O4        1.0  0.87110  0.83765  0.73506  1.0000
  O   O5        1.0  0.05036  0.65831  0.73504  1.0000
  O   O6        1.0  0.94844  0.83767  0.65771  1.0000
  O   O7        1.0  0.87100  0.73559  0.83714  1.0000
  O   O8        1.0  0.76899  0.73558  0.73514  1.0000
  O   O9        1.0  0.87105  0.65829  0.55575  1.0000
  O   O10       1.0  0.76896  0.65826  0.65784  1.0000
  O   O11       1.0  0.94842  0.73563  0.55569  1.0000
  O   O12       1.0  0.94825  0.55624  0.73511  1.0000
  O   O13       1.0  0.87095  0.55623  0.65782  1.0000
  C   C1        1.0  0.74613  0.69691  0.69650  1.0000
  C   C2        1.0  0.67617  0.69689  0.69652  1.0000
  C   C3        1.0  0.64330  0.65657  0.65633  1.0000
  C   C4        1.0  0.57756  0.65659  0.65630  1.0000
  C   C5        1.0  0.54468  0.69691  0.69647  1.0000
  C   C6        1.0  0.57755  0.73723  0.73666  1.0000
  C   C7        1.0  0.64329  0.73722  0.73669  1.0000
  N   N1        1.0  0.44141  0.70184  0.75153  1.0000
  N   N2        1.0  0.37896  0.70185  0.75151  1.0000
  C   C8        1.0  0.34661  0.69695  0.69640  1.0000
  N   N3        1.0  0.37907  0.69203  0.64132  1.0000
  N   N4        1.0  0.44153  0.69202  0.64135  1.0000
  C   C9        1.0  0.47340  0.69693  0.69645  1.0000
  C   C10       1.0  0.24246  0.65665  0.65618  1.0000
  C   C11       1.0  0.17672  0.65667  0.65615  1.0000
  C   C12       1.0  0.17671  0.73731  0.73652  1.0000
  C   C13       1.0  0.24245  0.73729  0.73655  1.0000
  C   C14       1.0  0.27532  0.69696  0.69637  1.0000
  C   C15       1.0  0.90960  0.53340  0.69646  1.0000
  C   C16       1.0  0.90963  0.46343  0.69646  1.0000
  C   C17       1.0  0.94991  0.43059  0.73666  1.0000
  C   C18       1.0  0.94994  0.36484  0.73664  1.0000
  C   C19       1.0  0.90967  0.33195  0.69643  1.0000
  C   C20       1.0  0.86939  0.36479  0.65622  1.0000
  C   C21       1.0  0.86936  0.43054  0.65624  1.0000
  N   N5        1.0  0.85461  0.22866  0.69166  1.0000
  N   N6        1.0  0.85463  0.16621  0.69165  1.0000
  C   C22       1.0  0.90974  0.13387  0.69640  1.0000
  N   N7        1.0  0.96483  0.16634  0.70116  1.0000
  N   N8        1.0  0.96481  0.22880  0.70117  1.0000
  C   C23       1.0  0.90969  0.26066  0.69642  1.0000
  C   C24       1.0  0.95006  0.02974  0.73659  1.0000
  C   C25       1.0  0.95009  0.96400  0.73657  1.0000
  C   C26       1.0  0.86954  0.96395  0.65615  1.0000
  C   C27       1.0  0.86951  0.02970  0.65617  1.0000
  C   C28       1.0  0.90977  0.06259  0.69639  1.0000
  C   C29       1.0  0.07388  0.69698  0.69635  1.0000
  C   C30       1.0  0.14384  0.69700  0.69632  1.0000
  C   C31       1.0  0.90974  0.69696  0.53224  1.0000
  C   C32       1.0  0.90976  0.69697  0.46227  1.0000
  C   C33       1.0  0.90978  0.86114  0.69638  1.0000
  C   C34       1.0  0.90983  0.93111  0.69636  1.0000
  C   C35       1.0  0.95004  0.73724  0.42937  1.0000
  C   C36       1.0  0.95004  0.73727  0.36363  1.0000
  C   C37       1.0  0.90977  0.69701  0.33079  1.0000
  C   C38       1.0  0.86947  0.65674  0.36369  1.0000
  C   C39       1.0  0.86947  0.65671  0.42943  1.0000
  N   N9        1.0  0.90491  0.64194  0.22757  1.0000
  N   N10       1.0  0.90491  0.64196  0.16512  1.0000
  C   C40       1.0  0.90977  0.69707  0.13271  1.0000
  N   N11       1.0  0.91463  0.75216  0.16511  1.0000
  N   N12       1.0  0.91463  0.75214  0.22757  1.0000
  C   C41       1.0  0.90976  0.69703  0.25950  1.0000
  C   C42       1.0  0.95005  0.73738  0.02853  1.0000
  C   C43       1.0  0.95005  0.73741  0.96278  1.0000
  C   C44       1.0  0.86948  0.65687  0.96285  1.0000
  C   C45       1.0  0.86948  0.65685  0.02859  1.0000
  C   C46       1.0  0.90977  0.69710  0.06143  1.0000
  C   C47       1.0  0.90967  0.69698  0.85998  1.0000
  C   C48       1.0  0.90977  0.69715  0.92995  1.0000
  H   H1        1.0  0.14996  0.62385  0.62342  1.0000
  H   H2        1.0  0.14994  0.77014  0.76923  1.0000
  N   N13       1.0  0.67688  0.61537  0.61530  1.0000
  N   N14       1.0  0.66947  0.55729  0.61959  1.0000
  H   H3        1.0  0.69318  0.52819  0.59061  1.0000
  N   N15       1.0  0.99119  0.77851  0.06207  1.0000
  N   N16       1.0  0.96906  0.81860  0.09877  1.0000
  H   H4        1.0  0.99811  0.84765  0.12247  1.0000
  N   N17       1.0  0.82835  0.61570  0.06220  1.0000
  N   N18       1.0  0.85047  0.57558  0.09887  1.0000
  H   H5        1.0  0.82141  0.54652  0.12261  1.0000
  H   H6        1.0  0.98275  0.33810  0.76938  1.0000
  H   H7        1.0  0.55080  0.62376  0.62357  1.0000
  N   N19       1.0  0.82826  0.33118  0.61515  1.0000
  N   N20       1.0  0.82829  0.27249  0.61515  1.0000
  H   H8        1.0  0.79925  0.24875  0.58614  1.0000
  N   N21       1.0  0.27604  0.61547  0.61513  1.0000
  N   N22       1.0  0.31279  0.63756  0.57499  1.0000
  H   H9        1.0  0.33651  0.60848  0.54600  1.0000
  H   H10       1.0  0.83668  0.62396  0.33695  1.0000
  N   N23       1.0  0.54398  0.77841  0.77771  1.0000
  N   N24       1.0  0.57333  0.81440  0.81359  1.0000
  H   H11       1.0  0.54963  0.84349  0.84258  1.0000
  H   H12       1.0  0.98285  0.77002  0.45610  1.0000
  N   N25       1.0  0.82833  0.61557  0.46305  1.0000
  N   N26       1.0  0.82834  0.61556  0.52175  1.0000
  H   H13       1.0  0.79928  0.58650  0.54549  1.0000
  N   N27       1.0  0.82821  0.46408  0.61516  1.0000
  N   N28       1.0  0.79226  0.43470  0.57926  1.0000
  H   H14       1.0  0.76320  0.45839  0.55025  1.0000
  N   N29       1.0  0.99119  0.77841  0.33003  1.0000
  N   N30       1.0  0.02716  0.81435  0.35935  1.0000
  H   H15       1.0  0.05622  0.84341  0.33562  1.0000
  H   H16       1.0  0.98270  0.45737  0.76941  1.0000
  N   N31       1.0  0.99120  0.77855  0.92919  1.0000
  N   N32       1.0  0.02717  0.81449  0.95852  1.0000
  H   H17       1.0  0.05623  0.84355  0.93479  1.0000
  H   H18       1.0  0.67005  0.77005  0.76941  1.0000
  N   N33       1.0  0.27601  0.77847  0.77760  1.0000
  N   N34       1.0  0.24665  0.81447  0.81347  1.0000
  H   H19       1.0  0.27036  0.84356  0.84247  1.0000
  N   N35       1.0  0.99119  0.06334  0.77767  1.0000
  N   N36       1.0  0.02716  0.03400  0.81356  1.0000
  H   H20       1.0  0.05621  0.05773  0.84258  1.0000
  H   H21       1.0  0.98290  0.93726  0.76931  1.0000
  H   H22       1.0  0.83675  0.93717  0.62341  1.0000
  N   N37       1.0  0.82836  0.06324  0.61510  1.0000
  N   N38       1.0  0.79241  0.03386  0.57920  1.0000
  H   H23       1.0  0.76334  0.05754  0.55019  1.0000
  H   H24       1.0  0.83668  0.62410  0.93611  1.0000
