data_image0
_chemical_formula_structural       Zn8O26C18N4C2N4C16O2N2C2O2C20N2C22O4C26N4C2N4C12H6Cl2H4Cl2H2Cl20H10Cl4H2Cl2H2
_chemical_formula_sum              "Zn8 O34 C120 N20 H26 Cl30"
_cell_length_a       21.2954
_cell_length_b       25.6392
_cell_length_c       21.2954
_cell_angle_alpha    90.0195
_cell_angle_beta     90.0437
_cell_angle_gamma    90.0545

_space_group_name_H-M_alt    "P 1"
_space_group_IT_number       1

loop_
  _space_group_symop_operation_xyz
  'x, y, z'

loop_
  _atom_site_type_symbol
  _atom_site_label
  _atom_site_symmetry_multiplicity
  _atom_site_fract_x
  _atom_site_fract_y
  _atom_site_fract_z
  _atom_site_occupancy
  Zn  Zn1       1.0  0.96232  0.79201  0.35624  1.0000
  Zn  Zn2       1.0  0.46232  0.29201  0.85624  1.0000
  Zn  Zn3       1.0  0.96221  0.70459  0.25097  1.0000
  Zn  Zn4       1.0  0.46221  0.20459  0.75097  1.0000
  Zn  Zn5       1.0  0.85704  0.79199  0.25095  1.0000
  Zn  Zn6       1.0  0.35704  0.29199  0.75095  1.0000
  Zn  Zn7       1.0  0.85700  0.70458  0.35617  1.0000
  Zn  Zn8       1.0  0.35700  0.20458  0.85617  1.0000
  O   O1        1.0  0.90964  0.74829  0.30358  1.0000
  O   O2        1.0  0.40964  0.24829  0.80358  1.0000
  O   O3        1.0  0.05039  0.78043  0.34232  1.0000
  O   O4        1.0  0.55040  0.28043  0.84232  1.0000
  O   O5        1.0  0.94823  0.71618  0.16288  1.0000
  O   O6        1.0  0.44823  0.21618  0.66288  1.0000
  O   O7        1.0  0.87107  0.86515  0.26494  1.0000
  O   O8        1.0  0.37108  0.36515  0.76494  1.0000
  O   O9        1.0  0.05031  0.71620  0.26498  1.0000
  O   O10       1.0  0.55031  0.21620  0.76498  1.0000
  O   O11       1.0  0.94842  0.86517  0.34230  1.0000
  O   O12       1.0  0.44842  0.36517  0.84230  1.0000
  O   O13       1.0  0.87096  0.78039  0.16287  1.0000
  O   O14       1.0  0.37096  0.28039  0.66287  1.0000
  O   O15       1.0  0.76895  0.78038  0.26487  1.0000
  O   O16       1.0  0.26895  0.28038  0.76487  1.0000
  O   O17       1.0  0.87100  0.71618  0.44427  1.0000
  O   O18       1.0  0.37100  0.21618  0.94427  1.0000
  O   O19       1.0  0.76891  0.71616  0.34217  1.0000
  O   O20       1.0  0.26891  0.21616  0.84217  1.0000
  O   O21       1.0  0.94838  0.78042  0.44432  1.0000
  O   O22       1.0  0.44838  0.28042  0.94432  1.0000
  O   O23       1.0  0.94818  0.63142  0.26490  1.0000
  O   O24       1.0  0.44819  0.13142  0.76490  1.0000
  O   O25       1.0  0.87089  0.63142  0.34219  1.0000
  O   O26       1.0  0.37089  0.13142  0.84219  1.0000
  C   C1        1.0  0.74609  0.74826  0.30351  1.0000
  C   C2        1.0  0.24609  0.24826  0.80351  1.0000
  C   C3        1.0  0.67612  0.74824  0.30350  1.0000
  C   C4        1.0  0.17612  0.24824  0.80350  1.0000
  C   C5        1.0  0.90954  0.61245  0.30356  1.0000
  C   C6        1.0  0.40954  0.11245  0.80355  1.0000
  C   C7        1.0  0.90955  0.55434  0.30356  1.0000
  C   C8        1.0  0.40955  0.05434  0.80356  1.0000
  C   C9        1.0  0.64326  0.71476  0.34369  1.0000
  C   C10       1.0  0.14325  0.21476  0.84369  1.0000
  C   C11       1.0  0.57751  0.71477  0.34371  1.0000
  C   C12       1.0  0.07751  0.21477  0.84371  1.0000
  C   C13       1.0  0.54464  0.74826  0.30354  1.0000
  C   C14       1.0  0.04464  0.24826  0.80354  1.0000
  C   C15       1.0  0.57752  0.78175  0.26335  1.0000
  C   C16       1.0  0.07752  0.28175  0.76335  1.0000
  C   C17       1.0  0.64326  0.78174  0.26332  1.0000
  C   C18       1.0  0.14326  0.28174  0.76333  1.0000
  N   N1        1.0  0.44137  0.75235  0.24848  1.0000
  N   N2        1.0  0.94137  0.25235  0.74848  1.0000
  N   N3        1.0  0.37891  0.75236  0.24851  1.0000
  N   N4        1.0  0.87891  0.25236  0.74851  1.0000
  C   C19       1.0  0.34657  0.74829  0.30361  1.0000
  C   C20       1.0  0.84657  0.24829  0.80361  1.0000
  N   N5        1.0  0.37903  0.74421  0.35869  1.0000
  N   N6        1.0  0.87903  0.24421  0.85869  1.0000
  N   N7        1.0  0.44149  0.74420  0.35866  1.0000
  N   N8        1.0  0.94149  0.24420  0.85866  1.0000
  C   C21       1.0  0.47335  0.74828  0.30356  1.0000
  C   C22       1.0  0.97335  0.24828  0.80356  1.0000
  C   C23       1.0  0.24241  0.71482  0.34383  1.0000
  C   C24       1.0  0.74241  0.21482  0.84383  1.0000
  C   C25       1.0  0.17667  0.71484  0.34386  1.0000
  C   C26       1.0  0.67667  0.21484  0.84386  1.0000
  C   C27       1.0  0.17667  0.78181  0.26349  1.0000
  C   C28       1.0  0.67667  0.28181  0.76349  1.0000
  C   C29       1.0  0.24241  0.78180  0.26347  1.0000
  C   C30       1.0  0.74242  0.28180  0.76346  1.0000
  C   C31       1.0  0.27528  0.74830  0.30364  1.0000
  C   C32       1.0  0.77528  0.24830  0.80364  1.0000
  C   C33       1.0  0.95000  0.19399  0.26341  1.0000
  C   C34       1.0  0.45000  0.69399  0.76341  1.0000
  C   C35       1.0  0.95002  0.13938  0.26342  1.0000
  C   C36       1.0  0.45002  0.63938  0.76342  1.0000
  O   O27       1.0  0.98430  0.11116  0.22925  1.0000
  O   O28       1.0  0.48430  0.61116  0.72925  1.0000
  N   N9        1.0  0.90975  0.11205  0.30363  1.0000
  N   N10       1.0  0.40975  0.61205  0.80363  1.0000
  C   C37       1.0  0.86946  0.13933  0.34383  1.0000
  C   C38       1.0  0.36946  0.63933  0.84383  1.0000
  O   O29       1.0  0.83522  0.11107  0.37803  1.0000
  O   O30       1.0  0.33522  0.61107  0.87803  1.0000
  C   C39       1.0  0.86944  0.19393  0.34383  1.0000
  C   C40       1.0  0.36944  0.69393  0.84383  1.0000
  C   C41       1.0  0.90971  0.22126  0.30361  1.0000
  C   C42       1.0  0.40971  0.72126  0.80361  1.0000
  C   C43       1.0  0.99026  0.22132  0.22320  1.0000
  C   C44       1.0  0.49026  0.72132  0.72320  1.0000
  C   C45       1.0  0.99023  0.27592  0.22319  1.0000
  C   C46       1.0  0.49023  0.77592  0.72319  1.0000
  C   C47       1.0  0.94995  0.30319  0.26339  1.0000
  C   C48       1.0  0.44995  0.80319  0.76339  1.0000
  C   C49       1.0  0.90968  0.27586  0.30360  1.0000
  C   C50       1.0  0.40968  0.77586  0.80360  1.0000
  C   C51       1.0  0.82916  0.22121  0.38404  1.0000
  C   C52       1.0  0.32916  0.72121  0.88404  1.0000
  C   C53       1.0  0.82914  0.27581  0.38403  1.0000
  C   C54       1.0  0.32914  0.77581  0.88403  1.0000
  C   C55       1.0  0.86940  0.30314  0.34381  1.0000
  C   C56       1.0  0.36940  0.80314  0.84381  1.0000
  C   C57       1.0  0.86937  0.35773  0.34380  1.0000
  C   C58       1.0  0.36937  0.85773  0.84380  1.0000
  N   N11       1.0  0.90964  0.38506  0.30359  1.0000
  N   N12       1.0  0.40964  0.88507  0.80359  1.0000
  C   C59       1.0  0.94992  0.35779  0.26338  1.0000
  C   C60       1.0  0.44992  0.85779  0.76338  1.0000
  C   C61       1.0  0.86951  0.02466  0.34384  1.0000
  C   C62       1.0  0.36951  0.52466  0.84384  1.0000
  C   C63       1.0  0.86953  0.97006  0.34385  1.0000
  C   C64       1.0  0.36953  0.47006  0.84384  1.0000
  C   C65       1.0  0.95009  0.97012  0.26343  1.0000
  C   C66       1.0  0.45009  0.47011  0.76343  1.0000
  C   C67       1.0  0.95007  0.02472  0.26343  1.0000
  C   C68       1.0  0.45006  0.52472  0.76342  1.0000
  C   C69       1.0  0.90978  0.05199  0.30363  1.0000
  C   C70       1.0  0.40978  0.55199  0.80363  1.0000
  C   C71       1.0  0.94987  0.47246  0.26337  1.0000
  C   C72       1.0  0.44987  0.97246  0.76337  1.0000
  C   C73       1.0  0.94984  0.52706  0.26336  1.0000
  C   C74       1.0  0.44984  0.02706  0.76336  1.0000
  C   C75       1.0  0.86928  0.52700  0.34378  1.0000
  C   C76       1.0  0.36928  0.02700  0.84378  1.0000
  C   C77       1.0  0.86931  0.47240  0.34378  1.0000
  C   C78       1.0  0.36931  0.97240  0.84378  1.0000
  C   C79       1.0  0.90961  0.44513  0.30358  1.0000
  C   C80       1.0  0.40961  0.94513  0.80358  1.0000
  O   O31       1.0  0.83511  0.38599  0.37795  1.0000
  O   O32       1.0  0.33511  0.88599  0.87795  1.0000
  O   O33       1.0  0.98417  0.38606  0.22920  1.0000
  O   O34       1.0  0.48417  0.88606  0.72920  1.0000
  C   C81       1.0  0.07383  0.74832  0.30366  1.0000
  C   C82       1.0  0.57383  0.24832  0.80366  1.0000
  C   C83       1.0  0.14380  0.74833  0.30369  1.0000
  C   C84       1.0  0.64380  0.24833  0.80369  1.0000
  C   C85       1.0  0.90969  0.74830  0.46777  1.0000
  C   C86       1.0  0.40969  0.24830  0.96777  1.0000
  C   C87       1.0  0.90972  0.74831  0.53774  1.0000
  C   C88       1.0  0.40972  0.24831  0.03774  1.0000
  C   C89       1.0  0.90977  0.88467  0.30363  1.0000
  C   C90       1.0  0.40977  0.38466  0.80363  1.0000
  C   C91       1.0  0.90982  0.94278  0.30364  1.0000
  C   C92       1.0  0.40982  0.44278  0.80365  1.0000
  C   C93       1.0  0.90963  0.74832  0.14003  1.0000
  C   C94       1.0  0.40963  0.24832  0.64003  1.0000
  C   C95       1.0  0.90973  0.74846  0.07007  1.0000
  C   C96       1.0  0.40973  0.24846  0.57006  1.0000
  C   C97       1.0  0.95001  0.78176  0.57064  1.0000
  C   C98       1.0  0.45001  0.28176  0.07064  1.0000
  C   C99       1.0  0.95001  0.78178  0.63638  1.0000
  C   C100      1.0  0.45001  0.28178  0.13638  1.0000
  C   C101      1.0  0.90972  0.74834  0.66922  1.0000
  C   C102      1.0  0.40972  0.24834  0.16922  1.0000
  C   C103      1.0  0.86942  0.71489  0.63632  1.0000
  C   C104      1.0  0.36942  0.21489  0.13632  1.0000
  C   C105      1.0  0.86942  0.71487  0.57058  1.0000
  C   C106      1.0  0.36942  0.21487  0.07058  1.0000
  N   N13       1.0  0.90486  0.70260  0.77244  1.0000
  N   N14       1.0  0.40486  0.20260  0.27244  1.0000
  N   N15       1.0  0.90486  0.70262  0.83489  1.0000
  N   N16       1.0  0.40486  0.20262  0.33489  1.0000
  C   C107      1.0  0.90973  0.74840  0.86730  1.0000
  C   C108      1.0  0.40972  0.24840  0.36730  1.0000
  N   N17       1.0  0.91459  0.79415  0.83490  1.0000
  N   N18       1.0  0.41459  0.29415  0.33490  1.0000
  N   N19       1.0  0.91459  0.79413  0.77244  1.0000
  N   N20       1.0  0.41459  0.29413  0.27244  1.0000
  C   C109      1.0  0.90972  0.74836  0.74051  1.0000
  C   C110      1.0  0.40972  0.24836  0.24051  1.0000
  C   C111      1.0  0.95002  0.78187  0.97148  1.0000
  C   C112      1.0  0.45002  0.28187  0.47148  1.0000
  C   C113      1.0  0.95001  0.78190  0.03723  1.0000
  C   C114      1.0  0.45001  0.28190  0.53723  1.0000
  C   C115      1.0  0.86943  0.71501  0.03716  1.0000
  C   C116      1.0  0.36943  0.21501  0.53716  1.0000
  C   C117      1.0  0.86943  0.71499  0.97142  1.0000
  C   C118      1.0  0.36943  0.21499  0.47142  1.0000
  C   C119      1.0  0.90973  0.74842  0.93858  1.0000
  C   C120      1.0  0.40973  0.24842  0.43858  1.0000
  H   H1        1.0  0.67001  0.68748  0.37640  1.0000
  H   H2        1.0  0.17001  0.18748  0.87640  1.0000
  H   H3        1.0  0.98281  0.80902  0.66317  1.0000
  H   H4        1.0  0.48281  0.30902  0.16317  1.0000
  H   H5        1.0  0.02302  0.29817  0.19044  1.0000
  H   H6        1.0  0.52302  0.79817  0.69044  1.0000
  Cl  Cl1       1.0  0.81864  0.56129  0.39432  1.0000
  Cl  Cl2       1.0  0.31864  0.06129  0.89432  1.0000
  H   H7        1.0  0.26918  0.80906  0.23073  1.0000
  H   H8        1.0  0.76918  0.30906  0.73073  1.0000
  H   H9        1.0  0.83661  0.68764  0.54380  1.0000
  H   H10       1.0  0.33661  0.18764  0.04380  1.0000
  Cl  Cl3       1.0  0.00046  0.56142  0.21280  1.0000
  Cl  Cl4       1.0  0.50046  0.06142  0.71280  1.0000
  H   H11       1.0  0.98282  0.80910  0.94474  1.0000
  H   H12       1.0  0.48282  0.30910  0.44474  1.0000
  Cl  Cl5       1.0  0.13535  0.67275  0.39440  1.0000
  Cl  Cl6       1.0  0.63535  0.17275  0.89440  1.0000
  Cl  Cl7       1.0  0.00068  0.82394  0.07858  1.0000
  Cl  Cl8       1.0  0.50068  0.32394  0.57858  1.0000
  Cl  Cl9       1.0  0.04091  0.18704  0.17265  1.0000
  Cl  Cl10      1.0  0.54091  0.68704  0.67265  1.0000
  Cl  Cl11      1.0  0.28373  0.67272  0.39434  1.0000
  Cl  Cl12      1.0  0.78373  0.17272  0.89434  1.0000
  Cl  Cl13      1.0  0.53618  0.67268  0.39424  1.0000
  Cl  Cl14      1.0  0.03618  0.17268  0.89424  1.0000
  Cl  Cl15      1.0  0.81878  0.67286  0.67761  1.0000
  Cl  Cl16      1.0  0.31878  0.17286  0.17761  1.0000
  Cl  Cl17      1.0  0.53619  0.82385  0.21285  1.0000
  Cl  Cl18      1.0  0.03619  0.32385  0.71285  1.0000
  Cl  Cl19      1.0  0.81885  0.05893  0.39439  1.0000
  Cl  Cl20      1.0  0.31885  0.55893  0.89439  1.0000
  Cl  Cl21      1.0  0.81890  0.93571  0.39440  1.0000
  Cl  Cl22      1.0  0.31890  0.43571  0.89440  1.0000
  Cl  Cl23      1.0  0.81878  0.67298  0.07845  1.0000
  Cl  Cl24      1.0  0.31878  0.17298  0.57845  1.0000
  H   H13       1.0  0.14991  0.80909  0.23078  1.0000
  H   H14       1.0  0.64991  0.30908  0.73078  1.0000
  H   H15       1.0  0.83663  0.68775  0.94464  1.0000
  H   H16       1.0  0.33663  0.18775  0.44464  1.0000
  H   H17       1.0  0.79636  0.19896  0.41678  1.0000
  H   H18       1.0  0.29636  0.69896  0.91678  1.0000
  H   H19       1.0  0.67002  0.80900  0.23060  1.0000
  H   H20       1.0  0.17002  0.30900  0.73060  1.0000
  H   H21       1.0  0.98268  0.45026  0.23063  1.0000
  H   H22       1.0  0.48268  0.95026  0.73063  1.0000
  Cl  Cl25      1.0  0.00073  0.93582  0.21289  1.0000
  Cl  Cl26      1.0  0.50073  0.43582  0.71289  1.0000
  Cl  Cl27      1.0  0.00069  0.05907  0.21287  1.0000
  Cl  Cl28      1.0  0.50069  0.55907  0.71287  1.0000
  H   H23       1.0  0.98282  0.80898  0.54391  1.0000
  H   H24       1.0  0.48282  0.30898  0.04391  1.0000
  Cl  Cl29      1.0  0.77849  0.31009  0.43458  1.0000
  Cl  Cl30      1.0  0.27849  0.81009  0.93458  1.0000
  H   H25       1.0  0.83652  0.45015  0.37653  1.0000
  H   H26       1.0  0.33652  0.95015  0.87653  1.0000
