data_image0
_chemical_formula_structural       O21Cu6O3C6N3C12O3N3C3O3C30N3C33O6C36N3C6O3N3C3O3C30N3C33O6C6O3N3C3O3C30N3C33O6C6H3O3H6O3H6O3H12O3H9O3H6O3H3O3H12O3H21O3H9O3H9O3H6O3H6O3H6O3H6
_chemical_formula_sum              "O102 Cu6 C270 N24 H120"
_cell_length_a       27.732
_cell_length_b       22.0102
_cell_length_c       23.5324
_cell_angle_alpha    90.0171
_cell_angle_beta     82.7355
_cell_angle_gamma    89.9877

_space_group_name_H-M_alt    "P 1"
_space_group_IT_number       1

loop_
  _space_group_symop_operation_xyz
  'x, y, z'

loop_
  _atom_site_type_symbol
  _atom_site_label
  _atom_site_symmetry_multiplicity
  _atom_site_fract_x
  _atom_site_fract_y
  _atom_site_fract_z
  _atom_site_occupancy
  O   O1        1.0  0.64101  0.05045  0.06778  1.0000
  O   O2        1.0  0.97435  0.38379  0.40111  1.0000
  O   O3        1.0  0.30768  0.71712  0.73444  1.0000
  O   O4        1.0  0.50023  0.05047  0.07808  1.0000
  O   O5        1.0  0.83357  0.38381  0.41141  1.0000
  O   O6        1.0  0.16690  0.71714  0.74474  1.0000
  O   O7        1.0  0.57488  0.05045  0.98998  1.0000
  O   O8        1.0  0.90821  0.38378  0.32332  1.0000
  O   O9        1.0  0.24155  0.71712  0.65665  1.0000
  O   O10       1.0  0.56636  0.05048  0.15587  1.0000
  O   O11       1.0  0.89970  0.38381  0.48920  1.0000
  O   O12       1.0  0.23303  0.71714  0.82254  1.0000
  O   O13       1.0  0.57489  0.94940  0.98997  1.0000
  O   O14       1.0  0.90822  0.28273  0.32330  1.0000
  O   O15       1.0  0.24156  0.61607  0.65663  1.0000
  O   O16       1.0  0.50024  0.94942  0.07806  1.0000
  O   O17       1.0  0.83358  0.28276  0.41140  1.0000
  O   O18       1.0  0.16691  0.61609  0.74473  1.0000
  O   O19       1.0  0.64102  0.94940  0.06776  1.0000
  O   O20       1.0  0.97436  0.28274  0.40109  1.0000
  O   O21       1.0  0.30769  0.61607  0.73443  1.0000
  Cu  Cu1       1.0  0.57064  0.94019  0.07291  1.0000
  Cu  Cu2       1.0  0.90397  0.27352  0.40624  1.0000
  Cu  Cu3       1.0  0.23730  0.60685  0.73958  1.0000
  Cu  Cu4       1.0  0.57062  0.05969  0.07293  1.0000
  Cu  Cu5       1.0  0.90395  0.39302  0.40626  1.0000
  Cu  Cu6       1.0  0.23729  0.72636  0.73960  1.0000
  O   O22       1.0  0.56638  0.94943  0.15585  1.0000
  O   O23       1.0  0.89971  0.28276  0.48919  1.0000
  O   O24       1.0  0.23304  0.61609  0.82252  1.0000
  C   C1        1.0  0.48223  0.99995  0.07785  1.0000
  C   C2        1.0  0.81556  0.33328  0.41119  1.0000
  C   C3        1.0  0.14890  0.66662  0.74452  1.0000
  C   C4        1.0  0.42858  0.99996  0.07720  1.0000
  C   C5        1.0  0.76191  0.33329  0.41054  1.0000
  C   C6        1.0  0.09524  0.66662  0.74387  1.0000
  N   N1        1.0  0.57065  0.85613  0.07290  1.0000
  N   N2        1.0  0.90398  0.18947  0.40623  1.0000
  N   N3        1.0  0.23731  0.52280  0.73956  1.0000
  C   C7        1.0  0.57467  0.99992  0.96876  1.0000
  C   C8        1.0  0.90801  0.33326  0.30209  1.0000
  C   C9        1.0  0.24134  0.66659  0.63543  1.0000
  C   C10       1.0  0.57403  0.99992  0.90554  1.0000
  C   C11       1.0  0.90737  0.33325  0.23888  1.0000
  C   C12       1.0  0.24070  0.66658  0.57221  1.0000
  C   C13       1.0  0.08983  0.99994  0.12516  1.0000
  C   C14       1.0  0.42316  0.33327  0.45849  1.0000
  C   C15       1.0  0.75649  0.66661  0.79183  1.0000
  C   C16       1.0  0.88816  0.99993  0.12274  1.0000
  C   C17       1.0  0.22150  0.33327  0.45608  1.0000
  C   C18       1.0  0.55483  0.66660  0.78941  1.0000
  O   O25       1.0  0.85697  0.99991  0.16660  1.0000
  O   O26       1.0  0.19030  0.33325  0.49993  1.0000
  O   O27       1.0  0.52364  0.66658  0.83327  1.0000
  N   N4        1.0  0.86897  0.99993  0.07051  1.0000
  N   N5        1.0  0.20230  0.33326  0.40384  1.0000
  N   N6        1.0  0.53563  0.66659  0.73717  1.0000
  C   C19       1.0  0.90019  0.99992  0.01887  1.0000
  C   C20       1.0  0.23352  0.33325  0.35220  1.0000
  C   C21       1.0  0.56686  0.66658  0.68554  1.0000
  O   O28       1.0  0.87924  0.99990  0.97439  1.0000
  O   O29       1.0  0.21257  0.33324  0.30772  1.0000
  O   O30       1.0  0.54590  0.66657  0.64105  1.0000
  C   C22       1.0  0.10185  0.99992  0.02129  1.0000
  C   C23       1.0  0.43519  0.33325  0.35462  1.0000
  C   C24       1.0  0.76852  0.66658  0.68795  1.0000
  C   C25       1.0  0.12105  0.99993  0.07353  1.0000
  C   C26       1.0  0.45438  0.33326  0.40686  1.0000
  C   C27       1.0  0.78771  0.66660  0.74020  1.0000
  C   C28       1.0  0.10902  0.99995  0.17740  1.0000
  C   C29       1.0  0.44235  0.33329  0.51073  1.0000
  C   C30       1.0  0.77569  0.66662  0.84406  1.0000
  C   C31       1.0  0.15943  0.99996  0.17800  1.0000
  C   C32       1.0  0.49277  0.33329  0.51133  1.0000
  C   C33       1.0  0.82610  0.66662  0.84467  1.0000
  C   C34       1.0  0.19065  0.99995  0.12637  1.0000
  C   C35       1.0  0.52399  0.33328  0.45970  1.0000
  C   C36       1.0  0.85732  0.66661  0.79304  1.0000
  C   C37       1.0  0.17146  0.99994  0.07413  1.0000
  C   C38       1.0  0.50479  0.33327  0.40747  1.0000
  C   C39       1.0  0.83813  0.66660  0.74080  1.0000
  C   C40       1.0  0.13307  0.99990  0.96965  1.0000
  C   C41       1.0  0.46641  0.33324  0.30299  1.0000
  C   C42       1.0  0.79974  0.66657  0.63632  1.0000
  C   C43       1.0  0.18349  0.99990  0.97026  1.0000
  C   C44       1.0  0.51683  0.33324  0.30360  1.0000
  C   C45       1.0  0.85016  0.66657  0.63693  1.0000
  C   C46       1.0  0.20269  0.99992  0.02250  1.0000
  C   C47       1.0  0.53602  0.33325  0.35584  1.0000
  C   C48       1.0  0.86935  0.66658  0.68917  1.0000
  C   C49       1.0  0.25309  0.99993  0.02310  1.0000
  C   C50       1.0  0.58642  0.33327  0.35644  1.0000
  C   C51       1.0  0.91976  0.66660  0.68977  1.0000
  N   N7        1.0  0.27229  0.99994  0.07534  1.0000
  N   N8        1.0  0.60562  0.33327  0.40867  1.0000
  N   N9        1.0  0.93895  0.66661  0.74201  1.0000
  C   C52       1.0  0.24107  0.99995  0.12697  1.0000
  C   C53       1.0  0.57440  0.33328  0.46031  1.0000
  C   C54       1.0  0.90773  0.66661  0.79364  1.0000
  C   C55       1.0  0.79431  0.99992  0.01761  1.0000
  C   C56       1.0  0.12765  0.33325  0.35094  1.0000
  C   C57       1.0  0.46098  0.66658  0.68427  1.0000
  C   C58       1.0  0.74390  0.99992  0.01700  1.0000
  C   C59       1.0  0.07723  0.33325  0.35034  1.0000
  C   C60       1.0  0.41057  0.66658  0.68367  1.0000
  C   C61       1.0  0.73188  0.99993  0.12087  1.0000
  C   C62       1.0  0.06521  0.33327  0.45421  1.0000
  C   C63       1.0  0.39854  0.66660  0.78754  1.0000
  C   C64       1.0  0.78229  0.99994  0.12148  1.0000
  C   C65       1.0  0.11563  0.33327  0.45481  1.0000
  C   C66       1.0  0.44896  0.66660  0.78814  1.0000
  C   C67       1.0  0.81351  0.99992  0.06984  1.0000
  C   C68       1.0  0.14685  0.33326  0.40318  1.0000
  C   C69       1.0  0.48018  0.66659  0.73651  1.0000
  C   C70       1.0  0.34694  0.99996  0.12824  1.0000
  C   C71       1.0  0.68027  0.33329  0.46157  1.0000
  C   C72       1.0  0.01361  0.66663  0.79490  1.0000
  C   C73       1.0  0.39736  0.99996  0.12884  1.0000
  C   C74       1.0  0.73069  0.33330  0.46217  1.0000
  C   C75       1.0  0.06402  0.66663  0.79550  1.0000
  C   C76       1.0  0.40938  0.99995  0.02496  1.0000
  C   C77       1.0  0.74271  0.33328  0.35830  1.0000
  C   C78       1.0  0.07604  0.66661  0.69163  1.0000
  C   C79       1.0  0.35896  0.99994  0.02436  1.0000
  C   C80       1.0  0.69230  0.33328  0.35770  1.0000
  C   C81       1.0  0.02563  0.66661  0.69103  1.0000
  C   C82       1.0  0.32775  0.99995  0.07600  1.0000
  C   C83       1.0  0.66108  0.33328  0.40934  1.0000
  C   C84       1.0  0.99441  0.66661  0.74267  1.0000
  O   O31       1.0  0.28431  0.99995  0.97927  1.0000
  O   O32       1.0  0.61765  0.33328  0.31261  1.0000
  O   O33       1.0  0.95098  0.66661  0.64594  1.0000
  O   O34       1.0  0.26203  0.99995  0.17145  1.0000
  O   O35       1.0  0.59537  0.33328  0.50479  1.0000
  O   O36       1.0  0.92870  0.66661  0.83812  1.0000
  C   C85       1.0  0.03941  0.99993  0.12456  1.0000
  C   C86       1.0  0.37275  0.33327  0.45789  1.0000
  C   C87       1.0  0.70608  0.66660  0.79122  1.0000
  C   C88       1.0  0.02022  0.99992  0.07232  1.0000
  C   C89       1.0  0.35355  0.33326  0.40565  1.0000
  C   C90       1.0  0.68689  0.66659  0.73899  1.0000
  C   C91       1.0  0.05144  0.99991  0.02069  1.0000
  C   C92       1.0  0.38477  0.33325  0.35402  1.0000
  C   C93       1.0  0.71811  0.66658  0.68736  1.0000
  C   C94       1.0  0.96981  0.99992  0.07172  1.0000
  C   C95       1.0  0.30314  0.33326  0.40505  1.0000
  C   C96       1.0  0.63647  0.66659  0.73838  1.0000
  C   C97       1.0  0.93859  0.99993  0.12335  1.0000
  C   C98       1.0  0.27192  0.33326  0.45668  1.0000
  C   C99       1.0  0.60525  0.66660  0.79002  1.0000
  C   C100      1.0  0.95778  0.99994  0.17559  1.0000
  C   C101      1.0  0.29112  0.33327  0.50892  1.0000
  C   C102      1.0  0.62445  0.66660  0.84225  1.0000
  C   C103      1.0  0.00819  0.99994  0.17619  1.0000
  C   C104      1.0  0.34153  0.33328  0.50952  1.0000
  C   C105      1.0  0.67486  0.66661  0.84286  1.0000
  C   C106      1.0  0.03224  0.99991  0.96845  1.0000
  C   C107      1.0  0.36558  0.33324  0.30179  1.0000
  C   C108      1.0  0.69891  0.66657  0.63512  1.0000
  C   C109      1.0  0.98183  0.99990  0.96785  1.0000
  C   C110      1.0  0.31516  0.33324  0.30119  1.0000
  C   C111      1.0  0.64850  0.66657  0.63452  1.0000
  C   C112      1.0  0.95061  0.99991  0.01949  1.0000
  C   C113      1.0  0.28394  0.33324  0.35282  1.0000
  C   C114      1.0  0.61728  0.66658  0.68615  1.0000
  C   C115      1.0  0.65902  0.99993  0.06798  1.0000
  C   C116      1.0  0.99236  0.33326  0.40132  1.0000
  C   C117      1.0  0.32569  0.66660  0.73465  1.0000
  C   C118      1.0  0.71268  0.99992  0.06863  1.0000
  C   C119      1.0  0.04601  0.33326  0.40197  1.0000
  C   C120      1.0  0.37935  0.66659  0.73530  1.0000
  N   N10       1.0  0.57061  0.14374  0.07294  1.0000
  N   N11       1.0  0.90395  0.47708  0.40627  1.0000
  N   N12       1.0  0.23728  0.81041  0.73960  1.0000
  C   C121      1.0  0.53751  0.43637  0.11186  1.0000
  C   C122      1.0  0.87085  0.76970  0.44519  1.0000
  C   C123      1.0  0.20418  0.10303  0.77853  1.0000
  C   C124      1.0  0.53751  0.37276  0.11187  1.0000
  C   C125      1.0  0.87084  0.70609  0.44520  1.0000
  C   C126      1.0  0.20418  0.03942  0.77853  1.0000
  O   O37       1.0  0.50936  0.33988  0.14499  1.0000
  O   O38       1.0  0.84269  0.67321  0.47832  1.0000
  O   O39       1.0  0.17603  0.00654  0.81165  1.0000
  N   N13       1.0  0.57062  0.34093  0.07293  1.0000
  N   N14       1.0  0.90396  0.67426  0.40627  1.0000
  N   N15       1.0  0.23729  0.00759  0.73960  1.0000
  C   C127      1.0  0.60374  0.37271  0.03400  1.0000
  C   C128      1.0  0.93708  0.70604  0.36733  1.0000
  C   C129      1.0  0.27041  0.03937  0.70067  1.0000
  O   O40       1.0  0.63191  0.33979  0.00089  1.0000
  O   O41       1.0  0.96524  0.67313  0.33422  1.0000
  O   O42       1.0  0.29858  0.00646  0.66755  1.0000
  C   C130      1.0  0.60375  0.43631  0.03400  1.0000
  C   C131      1.0  0.93708  0.76965  0.36733  1.0000
  C   C132      1.0  0.27042  0.10298  0.70067  1.0000
  C   C133      1.0  0.57063  0.46814  0.07293  1.0000
  C   C134      1.0  0.90396  0.80148  0.40626  1.0000
  C   C135      1.0  0.23730  0.13481  0.73960  1.0000
  C   C136      1.0  0.50440  0.46819  0.15079  1.0000
  C   C137      1.0  0.83773  0.80153  0.48412  1.0000
  C   C138      1.0  0.17107  0.13486  0.81745  1.0000
  C   C139      1.0  0.50440  0.53180  0.15078  1.0000
  C   C140      1.0  0.83773  0.86513  0.48412  1.0000
  C   C141      1.0  0.17107  0.19846  0.81745  1.0000
  C   C142      1.0  0.53752  0.56357  0.11185  1.0000
  C   C143      1.0  0.87085  0.89691  0.44518  1.0000
  C   C144      1.0  0.20418  0.23024  0.77852  1.0000
  C   C145      1.0  0.57063  0.53174  0.07292  1.0000
  C   C146      1.0  0.90397  0.86508  0.40626  1.0000
  C   C147      1.0  0.23730  0.19841  0.73959  1.0000
  C   C148      1.0  0.63687  0.46809  0.99507  1.0000
  C   C149      1.0  0.97020  0.80143  0.32840  1.0000
  C   C150      1.0  0.30354  0.13476  0.66174  1.0000
  C   C151      1.0  0.63687  0.53170  0.99507  1.0000
  C   C152      1.0  0.97021  0.86504  0.32841  1.0000
  C   C153      1.0  0.30354  0.19837  0.66174  1.0000
  C   C154      1.0  0.60375  0.56353  0.03400  1.0000
  C   C155      1.0  0.93709  0.89687  0.36734  1.0000
  C   C156      1.0  0.27042  0.23020  0.70067  1.0000
  C   C157      1.0  0.60375  0.62712  0.03399  1.0000
  C   C158      1.0  0.93708  0.96046  0.36732  1.0000
  C   C159      1.0  0.27042  0.29379  0.70065  1.0000
  N   N16       1.0  0.57064  0.65895  0.07292  1.0000
  N   N17       1.0  0.90397  0.99229  0.40625  1.0000
  N   N18       1.0  0.23731  0.32562  0.73959  1.0000
  C   C160      1.0  0.53752  0.62718  0.11185  1.0000
  C   C161      1.0  0.87086  0.96051  0.44518  1.0000
  C   C162      1.0  0.20419  0.29385  0.77852  1.0000
  C   C163      1.0  0.60373  0.23913  0.03401  1.0000
  C   C164      1.0  0.93707  0.57246  0.36734  1.0000
  C   C165      1.0  0.27040  0.90580  0.70067  1.0000
  C   C166      1.0  0.60373  0.17553  0.03400  1.0000
  C   C167      1.0  0.93706  0.50886  0.36734  1.0000
  C   C168      1.0  0.27039  0.84219  0.70067  1.0000
  C   C169      1.0  0.53750  0.17558  0.11187  1.0000
  C   C170      1.0  0.87083  0.50891  0.44520  1.0000
  C   C171      1.0  0.20416  0.84225  0.77853  1.0000
  C   C172      1.0  0.53750  0.23919  0.11187  1.0000
  C   C173      1.0  0.87083  0.57252  0.44520  1.0000
  C   C174      1.0  0.20417  0.90585  0.77853  1.0000
  C   C175      1.0  0.57062  0.27096  0.07294  1.0000
  C   C176      1.0  0.90395  0.60429  0.40627  1.0000
  C   C177      1.0  0.23729  0.93763  0.73960  1.0000
  C   C178      1.0  0.53753  0.76075  0.11184  1.0000
  C   C179      1.0  0.87086  0.09408  0.44517  1.0000
  C   C180      1.0  0.20419  0.42742  0.77850  1.0000
  C   C181      1.0  0.53753  0.82436  0.11183  1.0000
  C   C182      1.0  0.87086  0.15769  0.44516  1.0000
  C   C183      1.0  0.20420  0.49103  0.77849  1.0000
  C   C184      1.0  0.60376  0.82430  0.03396  1.0000
  C   C185      1.0  0.93710  0.15763  0.36730  1.0000
  C   C186      1.0  0.27043  0.49097  0.70063  1.0000
  C   C187      1.0  0.60376  0.76070  0.03397  1.0000
  C   C188      1.0  0.93709  0.09403  0.36730  1.0000
  C   C189      1.0  0.27043  0.42736  0.70064  1.0000
  C   C190      1.0  0.57064  0.72892  0.07291  1.0000
  C   C191      1.0  0.90397  0.06225  0.40625  1.0000
  C   C192      1.0  0.23731  0.39559  0.73958  1.0000
  O   O43       1.0  0.63189  0.66005  0.00088  1.0000
  O   O44       1.0  0.96522  0.99338  0.33422  1.0000
  O   O45       1.0  0.29856  0.32671  0.66755  1.0000
  O   O46       1.0  0.50936  0.66010  0.14496  1.0000
  O   O47       1.0  0.84270  0.99343  0.47830  1.0000
  O   O48       1.0  0.17603  0.32677  0.81163  1.0000
  C   C193      1.0  0.57001  0.05503  0.51355  1.0000
  C   C194      1.0  0.90334  0.38837  0.84688  1.0000
  C   C195      1.0  0.23667  0.72170  0.18022  1.0000
  C   C196      1.0  0.56940  0.05504  0.45415  1.0000
  C   C197      1.0  0.90273  0.38837  0.78748  1.0000
  C   C198      1.0  0.23606  0.72170  0.12082  1.0000
  O   O49       1.0  0.56906  0.10188  0.42344  1.0000
  O   O50       1.0  0.90240  0.43522  0.75678  1.0000
  O   O51       1.0  0.23573  0.76855  0.09011  1.0000
  N   N19       1.0  0.56910  0.99996  0.42443  1.0000
  N   N20       1.0  0.90244  0.33329  0.75776  1.0000
  N   N21       1.0  0.23577  0.66662  0.09110  1.0000
  C   C199      1.0  0.56941  0.94487  0.45411  1.0000
  C   C200      1.0  0.90274  0.27820  0.78745  1.0000
  C   C201      1.0  0.23608  0.61153  0.12078  1.0000
  O   O52       1.0  0.56910  0.89802  0.42338  1.0000
  O   O53       1.0  0.90243  0.23135  0.75671  1.0000
  O   O54       1.0  0.23577  0.56468  0.09005  1.0000
  C   C202      1.0  0.57002  0.94486  0.51351  1.0000
  C   C203      1.0  0.90335  0.27820  0.84684  1.0000
  C   C204      1.0  0.23668  0.61153  0.18018  1.0000
  C   C205      1.0  0.57032  0.99995  0.54323  1.0000
  C   C206      1.0  0.90365  0.33328  0.87656  1.0000
  C   C207      1.0  0.23698  0.66662  0.20989  1.0000
  C   C208      1.0  0.57031  0.11012  0.54326  1.0000
  C   C209      1.0  0.90364  0.44345  0.87660  1.0000
  C   C210      1.0  0.23697  0.77678  0.20993  1.0000
  C   C211      1.0  0.57092  0.11011  0.60266  1.0000
  C   C212      1.0  0.90425  0.44344  0.93599  1.0000
  C   C213      1.0  0.23758  0.77678  0.26932  1.0000
  C   C214      1.0  0.57123  0.05503  0.63234  1.0000
  C   C215      1.0  0.90456  0.38836  0.96567  1.0000
  C   C216      1.0  0.23789  0.72169  0.29900  1.0000
  C   C217      1.0  0.57093  0.99995  0.60262  1.0000
  C   C218      1.0  0.90426  0.33328  0.93595  1.0000
  C   C219      1.0  0.23759  0.66661  0.26929  1.0000
  C   C220      1.0  0.57032  0.88978  0.54319  1.0000
  C   C221      1.0  0.90365  0.22311  0.87653  1.0000
  C   C222      1.0  0.23699  0.55644  0.20986  1.0000
  C   C223      1.0  0.57092  0.88978  0.60259  1.0000
  C   C224      1.0  0.90426  0.22311  0.93593  1.0000
  C   C225      1.0  0.23759  0.55644  0.26926  1.0000
  C   C226      1.0  0.57122  0.94486  0.63231  1.0000
  C   C227      1.0  0.90456  0.27820  0.96564  1.0000
  C   C228      1.0  0.23789  0.61153  0.29898  1.0000
  C   C229      1.0  0.57184  0.94486  0.69169  1.0000
  C   C230      1.0  0.90518  0.27819  0.02503  1.0000
  C   C231      1.0  0.23851  0.61152  0.35836  1.0000
  N   N22       1.0  0.57214  0.99994  0.72141  1.0000
  N   N23       1.0  0.90547  0.33327  0.05475  1.0000
  N   N24       1.0  0.23881  0.66661  0.38808  1.0000
  C   C232      1.0  0.57183  0.05502  0.69173  1.0000
  C   C233      1.0  0.90516  0.38836  0.02507  1.0000
  C   C234      1.0  0.23850  0.72169  0.35840  1.0000
  C   C235      1.0  0.56814  0.94488  0.32937  1.0000
  C   C236      1.0  0.90147  0.27821  0.66271  1.0000
  C   C237      1.0  0.23480  0.61154  0.99604  1.0000
  C   C238      1.0  0.56754  0.94488  0.26998  1.0000
  C   C239      1.0  0.90087  0.27821  0.60331  1.0000
  C   C240      1.0  0.23420  0.61155  0.93664  1.0000
  C   C241      1.0  0.56752  0.05505  0.27002  1.0000
  C   C242      1.0  0.90086  0.38838  0.60335  1.0000
  C   C243      1.0  0.23419  0.72172  0.93668  1.0000
  C   C244      1.0  0.56813  0.05505  0.32942  1.0000
  C   C245      1.0  0.90146  0.38838  0.66275  1.0000
  C   C246      1.0  0.23480  0.72171  0.99608  1.0000
  C   C247      1.0  0.56843  0.99996  0.35909  1.0000
  C   C248      1.0  0.90177  0.33329  0.69243  1.0000
  C   C249      1.0  0.23510  0.66663  0.02576  1.0000
  C   C250      1.0  0.57311  0.05501  0.81647  1.0000
  C   C251      1.0  0.90644  0.38835  0.14980  1.0000
  C   C252      1.0  0.23978  0.72168  0.48313  1.0000
  C   C253      1.0  0.57372  0.05500  0.87586  1.0000
  C   C254      1.0  0.90706  0.38834  0.20920  1.0000
  C   C255      1.0  0.24039  0.72167  0.54253  1.0000
  C   C256      1.0  0.57373  0.94483  0.87582  1.0000
  C   C257      1.0  0.90707  0.27817  0.20915  1.0000
  C   C258      1.0  0.24040  0.61150  0.54249  1.0000
  C   C259      1.0  0.57312  0.94484  0.81642  1.0000
  C   C260      1.0  0.90646  0.27817  0.14976  1.0000
  C   C261      1.0  0.23979  0.61151  0.48309  1.0000
  C   C262      1.0  0.57281  0.99994  0.78675  1.0000
  C   C263      1.0  0.90614  0.33327  0.12008  1.0000
  C   C264      1.0  0.23948  0.66660  0.45342  1.0000
  O   O55       1.0  0.57218  0.89804  0.72244  1.0000
  O   O56       1.0  0.90551  0.23137  0.05577  1.0000
  O   O57       1.0  0.23885  0.56470  0.38910  1.0000
  O   O58       1.0  0.57213  0.10187  0.72248  1.0000
  O   O59       1.0  0.90547  0.43520  0.05581  1.0000
  O   O60       1.0  0.23880  0.76853  0.38914  1.0000
  C   C265      1.0  0.56658  0.99996  0.17708  1.0000
  C   C266      1.0  0.89992  0.33329  0.51041  1.0000
  C   C267      1.0  0.23325  0.66662  0.84374  1.0000
  C   C268      1.0  0.56722  0.99996  0.24029  1.0000
  C   C269      1.0  0.90056  0.33330  0.57363  1.0000
  C   C270      1.0  0.23389  0.66663  0.90696  1.0000
  H   H1        1.0  0.32153  0.99996  0.17029  1.0000
  H   H2        1.0  0.65486  0.33329  0.50362  1.0000
  H   H3        1.0  0.98819  0.66663  0.83695  1.0000
  O   O61       1.0  0.56717  0.11446  0.23800  1.0000
  O   O62       1.0  0.90050  0.44780  0.57134  1.0000
  O   O63       1.0  0.23384  0.78113  0.90467  1.0000
  H   H4        1.0  0.56747  0.15277  0.26864  1.0000
  H   H5        1.0  0.90081  0.48610  0.60197  1.0000
  H   H6        1.0  0.23414  0.81944  0.93531  1.0000
  H   H7        1.0  0.63073  0.85018  0.00226  1.0000
  H   H8        1.0  0.96406  0.18351  0.33560  1.0000
  H   H9        1.0  0.29739  0.51685  0.66893  1.0000
  O   O64       1.0  0.80299  0.99995  0.17782  1.0000
  O   O65       1.0  0.13633  0.33328  0.51116  1.0000
  O   O66       1.0  0.46966  0.66661  0.84449  1.0000
  H   H10       1.0  0.82568  0.95876  0.18058  1.0000
  H   H11       1.0  0.15902  0.29210  0.51391  1.0000
  H   H12       1.0  0.49235  0.62543  0.84724  1.0000
  H   H13       1.0  0.66385  0.55757  0.96337  1.0000
  H   H14       1.0  0.99718  0.89091  0.29670  1.0000
  H   H15       1.0  0.33051  0.22424  0.63004  1.0000
  O   O67       1.0  0.57277  0.11443  0.78447  1.0000
  O   O68       1.0  0.90610  0.44777  0.11780  1.0000
  O   O69       1.0  0.23944  0.78110  0.45113  1.0000
  H   H16       1.0  0.60584  0.14084  0.79050  1.0000
  H   H17       1.0  0.93917  0.47417  0.12384  1.0000
  H   H18       1.0  0.27250  0.80751  0.45717  1.0000
  H   H19       1.0  0.70645  0.99994  0.16292  1.0000
  H   H20       1.0  0.03978  0.33327  0.49625  1.0000
  H   H21       1.0  0.37312  0.66661  0.82958  1.0000
  H   H22       1.0  0.57117  0.84492  0.62676  1.0000
  H   H23       1.0  0.90450  0.17825  0.96009  1.0000
  H   H24       1.0  0.23783  0.51158  0.29342  1.0000
  H   H25       1.0  0.63069  0.14962  0.00230  1.0000
  H   H26       1.0  0.96403  0.48295  0.33563  1.0000
  H   H27       1.0  0.29736  0.81628  0.66897  1.0000
  O   O70       1.0  0.50180  0.72648  0.15384  1.0000
  O   O71       1.0  0.83514  0.05982  0.48717  1.0000
  O   O72       1.0  0.16847  0.39315  0.82050  1.0000
  H   H28       1.0  0.52196  0.69751  0.18141  1.0000
  H   H29       1.0  0.85530  0.03085  0.51474  1.0000
  H   H30       1.0  0.18863  0.36418  0.84808  1.0000
  H   H31       1.0  0.56730  0.90002  0.24579  1.0000
  H   H32       1.0  0.90063  0.23336  0.57912  1.0000
  H   H33       1.0  0.23396  0.56669  0.91245  1.0000
  H   H34       1.0  0.72828  0.99992  0.97446  1.0000
  H   H35       1.0  0.06161  0.33325  0.30780  1.0000
  H   H36       1.0  0.39494  0.66658  0.64113  1.0000
  O   O73       1.0  0.57405  0.11442  0.90792  1.0000
  O   O74       1.0  0.90738  0.44775  0.24125  1.0000
  O   O75       1.0  0.24071  0.78109  0.57458  1.0000
  H   H37       1.0  0.54138  0.11706  0.94035  1.0000
  H   H38       1.0  0.87471  0.45039  0.27369  1.0000
  H   H39       1.0  0.20804  0.78372  0.60702  1.0000
  H   H40       1.0  0.20891  0.99989  0.92821  1.0000
  H   H41       1.0  0.54224  0.33322  0.26155  1.0000
  H   H42       1.0  0.87558  0.66656  0.59488  1.0000
  O   O76       1.0  0.57123  0.16952  0.63471  1.0000
  O   O77       1.0  0.90456  0.50286  0.96804  1.0000
  O   O78       1.0  0.23789  0.83619  0.30138  1.0000
  H   H43       1.0  0.57090  0.20782  0.60408  1.0000
  H   H44       1.0  0.90424  0.54116  0.93742  1.0000
  H   H45       1.0  0.23757  0.87449  0.27075  1.0000
  O   O79       1.0  0.96113  0.99988  0.91151  1.0000
  O   O80       1.0  0.29446  0.33321  0.24484  1.0000
  O   O81       1.0  0.62780  0.66655  0.57817  1.0000
  H   H46       1.0  0.99131  0.99987  0.87571  1.0000
  H   H47       1.0  0.32465  0.33320  0.20904  1.0000
  H   H48       1.0  0.65798  0.66654  0.54237  1.0000
  H   H49       1.0  0.57288  0.89999  0.79223  1.0000
  H   H50       1.0  0.90622  0.23332  0.12556  1.0000
  H   H51       1.0  0.23955  0.56665  0.45889  1.0000
  H   H52       1.0  0.57005  0.15497  0.51911  1.0000
  H   H53       1.0  0.90339  0.48831  0.85244  1.0000
  H   H54       1.0  0.23672  0.82164  0.18577  1.0000
  H   H55       1.0  0.47743  0.44233  0.18249  1.0000
  H   H56       1.0  0.81076  0.77566  0.51583  1.0000
  H   H57       1.0  0.14410  0.10899  0.84916  1.0000
  O   O82       1.0  0.57407  0.88542  0.90783  1.0000
  O   O83       1.0  0.90740  0.21875  0.24117  1.0000
  O   O84       1.0  0.24073  0.55209  0.57450  1.0000
  H   H58       1.0  0.57454  0.89468  0.95413  1.0000
  H   H59       1.0  0.90787  0.22801  0.28746  1.0000
  H   H60       1.0  0.24120  0.56134  0.62079  1.0000
  H   H61       1.0  0.05766  0.99990  0.92641  1.0000
  H   H62       1.0  0.39099  0.33323  0.25974  1.0000
  H   H63       1.0  0.72432  0.66657  0.59307  1.0000
  H   H64       1.0  0.08361  0.99996  0.21944  1.0000
  H   H65       1.0  0.41694  0.33329  0.55278  1.0000
  H   H66       1.0  0.75027  0.66662  0.88611  1.0000
  H   H67       1.0  0.02382  0.99995  0.21873  1.0000
  H   H68       1.0  0.35715  0.33329  0.55206  1.0000
  H   H69       1.0  0.69048  0.66662  0.88540  1.0000
  H   H70       1.0  0.47743  0.55771  0.18248  1.0000
  H   H71       1.0  0.81077  0.89104  0.51582  1.0000
  H   H72       1.0  0.14410  0.22437  0.84915  1.0000
  H   H73       1.0  0.63072  0.73478  0.00227  1.0000
  H   H74       1.0  0.96406  0.06811  0.33560  1.0000
  H   H75       1.0  0.29739  0.40145  0.66893  1.0000
  H   H76       1.0  0.81973  0.99991  0.97556  1.0000
  H   H77       1.0  0.15306  0.33324  0.30889  1.0000
  H   H78       1.0  0.48640  0.66657  0.64222  1.0000
  O   O85       1.0  0.92410  0.99995  0.23128  1.0000
  O   O86       1.0  0.25744  0.33328  0.56461  1.0000
  O   O87       1.0  0.59077  0.66661  0.89794  1.0000
  H   H79       1.0  0.93091  0.95876  0.25629  1.0000
  H   H80       1.0  0.26424  0.29210  0.58962  1.0000
  H   H81       1.0  0.59758  0.62543  0.92296  1.0000
  H   H82       1.0  0.34333  0.99994  0.98183  1.0000
  H   H83       1.0  0.67667  0.33327  0.31516  1.0000
  H   H84       1.0  0.01000  0.66661  0.64849  1.0000
  H   H85       1.0  0.41298  0.99998  0.17138  1.0000
  H   H86       1.0  0.74631  0.33331  0.50471  1.0000
  H   H87       1.0  0.07965  0.66664  0.83804  1.0000
  O   O88       1.0  0.11238  0.99988  0.91331  1.0000
  O   O89       1.0  0.44571  0.33321  0.24664  1.0000
  O   O90       1.0  0.77905  0.66654  0.57998  1.0000
  H   H88       1.0  0.14257  0.99986  0.87751  1.0000
  H   H89       1.0  0.47590  0.33319  0.21085  1.0000
  H   H90       1.0  0.80923  0.66653  0.54418  1.0000
  H   H91       1.0  0.43480  0.99994  0.98293  1.0000
  H   H92       1.0  0.76814  0.33328  0.31626  1.0000
  H   H93       1.0  0.10147  0.66661  0.64959  1.0000
  H   H94       1.0  0.51056  0.85027  0.14353  1.0000
  H   H95       1.0  0.84389  0.18360  0.47686  1.0000
  H   H96       1.0  0.17723  0.51694  0.81019  1.0000
  O   O91       1.0  0.50179  0.27351  0.15386  1.0000
  O   O92       1.0  0.83512  0.60685  0.48719  1.0000
  O   O93       1.0  0.16845  0.94018  0.82053  1.0000
  H   H97       1.0  0.47876  0.24072  0.18093  1.0000
  H   H98       1.0  0.81209  0.57406  0.51426  1.0000
  H   H99       1.0  0.14543  0.90739  0.84760  1.0000
  H   H100      1.0  0.56837  0.09990  0.35361  1.0000
  H   H101      1.0  0.90171  0.43324  0.68694  1.0000
  H   H102      1.0  0.23504  0.76657  0.02027  1.0000
  O   O94       1.0  0.50178  0.14130  0.15387  1.0000
  O   O95       1.0  0.83511  0.47463  0.48720  1.0000
  O   O96       1.0  0.16845  0.80797  0.82053  1.0000
  H   H103      1.0  0.50735  0.09173  0.14733  1.0000
  H   H104      1.0  0.84068  0.42506  0.48066  1.0000
  H   H105      1.0  0.17402  0.75839  0.81400  1.0000
  H   H106      1.0  0.63070  0.26500  0.00230  1.0000
  H   H107      1.0  0.96404  0.59833  0.33563  1.0000
  H   H108      1.0  0.29737  0.93166  0.66897  1.0000
  O   O97       1.0  0.18013  0.99995  0.23434  1.0000
  O   O98       1.0  0.51347  0.33329  0.56768  1.0000
  O   O99       1.0  0.84680  0.66662  0.90101  1.0000
  H   H109      1.0  0.14995  0.99995  0.27014  1.0000
  H   H110      1.0  0.48328  0.33328  0.60347  1.0000
  H   H111      1.0  0.81661  0.66661  0.93681  1.0000
  H   H112      1.0  0.66384  0.44219  0.96337  1.0000
  H   H113      1.0  0.99717  0.77552  0.29670  1.0000
  H   H114      1.0  0.33051  0.10886  0.63004  1.0000
  O   O100      1.0  0.56848  0.88546  0.36138  1.0000
  O   O101      1.0  0.90181  0.21879  0.69471  1.0000
  O   O102      1.0  0.23515  0.55212  0.02805  1.0000
  H   H115      1.0  0.56818  0.84716  0.33073  1.0000
  H   H116      1.0  0.90151  0.18049  0.66407  1.0000
  H   H117      1.0  0.23484  0.51383  0.99740  1.0000
  H   H118      1.0  0.57008  0.84492  0.51901  1.0000
  H   H119      1.0  0.90341  0.17825  0.85234  1.0000
  H   H120      1.0  0.23674  0.51159  0.18568  1.0000
