data_image0
_chemical_formula_structural       Zn4O13C11N2CN2C16HBrH4Br2
_chemical_formula_sum              "Zn4 O13 C28 N4 H5 Br3"
_cell_length_a       13.8974
_cell_length_b       21.2954
_cell_length_c       13.8974
_cell_angle_alpha    90.0354
_cell_angle_beta     90.0234
_cell_angle_gamma    90.0305

_space_group_name_H-M_alt    "P 1"
_space_group_IT_number       1

loop_
  _space_group_symop_operation_xyz
  'x, y, z'

loop_
  _atom_site_type_symbol
  _atom_site_label
  _atom_site_symmetry_multiplicity
  _atom_site_fract_x
  _atom_site_fract_y
  _atom_site_fract_z
  _atom_site_occupancy
  Zn  Zn1       1.0  0.47462  0.74943  0.54542  1.0000
  Zn  Zn2       1.0  0.47448  0.64415  0.38411  1.0000
  Zn  Zn3       1.0  0.31331  0.74940  0.38413  1.0000
  Zn  Zn4       1.0  0.31326  0.64419  0.54535  1.0000
  O   O1        1.0  0.39392  0.69679  0.46475  1.0000
  O   O2        1.0  0.60958  0.73545  0.52404  1.0000
  O   O3        1.0  0.45307  0.65808  0.24913  1.0000
  O   O4        1.0  0.33479  0.83749  0.40556  1.0000
  O   O5        1.0  0.60948  0.65811  0.40552  1.0000
  O   O6        1.0  0.45330  0.83751  0.52406  1.0000
  O   O7        1.0  0.33465  0.73540  0.24914  1.0000
  O   O8        1.0  0.17832  0.73545  0.40550  1.0000
  O   O9        1.0  0.33470  0.65818  0.68034  1.0000
  O   O10       1.0  0.17828  0.65815  0.52395  1.0000
  O   O11       1.0  0.45325  0.73550  0.68039  1.0000
  O   O12       1.0  0.45301  0.55606  0.40546  1.0000
  O   O13       1.0  0.33456  0.55609  0.52392  1.0000
  C   C1        1.0  0.14330  0.69680  0.46472  1.0000
  C   C2        1.0  0.03609  0.69679  0.46472  1.0000
  C   C3        1.0  0.94902  0.69678  0.46474  1.0000
  C   C4        1.0  0.83979  0.69678  0.46477  1.0000
  C   C5        1.0  0.39380  0.53324  0.46470  1.0000
  C   C6        1.0  0.39383  0.46327  0.46471  1.0000
  C   C7        1.0  0.45551  0.43047  0.52646  1.0000
  C   C8        1.0  0.45554  0.36473  0.52648  1.0000
  C   C9        1.0  0.39391  0.33179  0.46474  1.0000
  C   C10       1.0  0.33222  0.36459  0.40299  1.0000
  C   C11       1.0  0.33218  0.43033  0.40298  1.0000
  N   N1        1.0  0.38662  0.22852  0.38033  1.0000
  N   N2        1.0  0.38666  0.16607  0.38034  1.0000
  C   C12       1.0  0.39402  0.13371  0.46479  1.0000
  N   N3        1.0  0.40136  0.16617  0.54921  1.0000
  N   N4        1.0  0.40132  0.22862  0.54920  1.0000
  C   C13       1.0  0.39394  0.26050  0.46475  1.0000
  C   C14       1.0  0.45574  0.02963  0.52656  1.0000
  C   C15       1.0  0.45576  0.96388  0.52659  1.0000
  C   C16       1.0  0.33245  0.96375  0.40309  1.0000
  C   C17       1.0  0.33242  0.02949  0.40307  1.0000
  C   C18       1.0  0.39407  0.06243  0.46481  1.0000
  C   C19       1.0  0.64551  0.69678  0.46478  1.0000
  C   C20       1.0  0.75273  0.69677  0.46480  1.0000
  C   C21       1.0  0.39399  0.69684  0.71634  1.0000
  C   C22       1.0  0.39402  0.69687  0.82356  1.0000
  C   C23       1.0  0.39407  0.86098  0.46482  1.0000
  C   C24       1.0  0.39413  0.93095  0.46485  1.0000
  C   C25       1.0  0.39391  0.69678  0.21414  1.0000
  C   C26       1.0  0.39406  0.69693  0.10692  1.0000
  C   C27       1.0  0.39404  0.69691  0.01985  1.0000
  C   C28       1.0  0.39403  0.69688  0.91062  1.0000
  H   H1        1.0  0.50570  0.45728  0.57673  1.0000
  Br  Br1       1.0  0.53946  0.91937  0.61041  1.0000
  H   H2        1.0  0.28226  0.93693  0.35283  1.0000
  H   H3        1.0  0.28196  0.45704  0.35270  1.0000
  H   H4        1.0  0.28220  0.05620  0.35279  1.0000
  H   H5        1.0  0.28204  0.33777  0.35273  1.0000
  Br  Br2       1.0  0.53925  0.32021  0.61028  1.0000
  Br  Br3       1.0  0.53940  0.07433  0.61035  1.0000
