data_image0
_chemical_formula_structural       O7Cu2OC20N2C4H3C6H6C6H7C6H5C6H9
_chemical_formula_sum              "O8 Cu2 C48 N2 H30"
_cell_length_a       10.6546
_cell_length_b       12.8114
_cell_length_c       9.13031
_cell_angle_alpha    84.5646
_cell_angle_beta     89.9997
_cell_angle_gamma    84.2635

_space_group_name_H-M_alt    "P 1"
_space_group_IT_number       1

loop_
  _space_group_symop_operation_xyz
  'x, y, z'

loop_
  _atom_site_type_symbol
  _atom_site_label
  _atom_site_symmetry_multiplicity
  _atom_site_fract_x
  _atom_site_fract_y
  _atom_site_fract_z
  _atom_site_occupancy
  O   O1        1.0  0.66707  0.14743  0.85873  1.0000
  O   O2        1.0  0.30152  0.16147  0.85684  1.0000
  O   O3        1.0  0.49349  0.00172  0.87808  1.0000
  O   O4        1.0  0.47510  0.30717  0.83749  1.0000
  O   O5        1.0  0.49348  0.00172  0.12168  1.0000
  O   O6        1.0  0.30151  0.16147  0.10044  1.0000
  O   O7        1.0  0.66706  0.14742  0.10233  1.0000
  Cu  Cu1       1.0  0.48428  0.15444  0.12363  1.0000
  Cu  Cu2       1.0  0.48430  0.15445  0.83554  1.0000
  O   O8        1.0  0.47509  0.30717  0.08109  1.0000
  C   C1        1.0  0.25472  0.16044  0.97877  1.0000
  C   C2        1.0  0.11530  0.15735  0.97917  1.0000
  C   C3        1.0  0.49246  0.96261  0.00507  1.0000
  C   C4        1.0  0.48937  0.84607  0.02055  1.0000
  C   C5        1.0  0.03532  0.25141  0.96668  1.0000
  C   C6        1.0  0.90432  0.24850  0.96709  1.0000
  C   C7        1.0  0.93327  0.05748  0.99248  1.0000
  C   C8        1.0  0.06428  0.06038  0.99208  1.0000
  C   C9        1.0  0.48356  0.62709  0.78402  1.0000
  C   C10       1.0  0.48066  0.51759  0.79855  1.0000
  C   C11       1.0  0.48066  0.51757  0.06414  1.0000
  C   C12       1.0  0.48356  0.62707  0.04961  1.0000
  C   C13       1.0  0.48501  0.68183  0.90954  1.0000
  C   C14       1.0  0.48792  0.79133  0.89501  1.0000
  C   C15       1.0  0.48791  0.79130  0.16060  1.0000
  C   C16       1.0  0.48501  0.68180  0.17513  1.0000
  C   C17       1.0  0.71386  0.14846  0.98039  1.0000
  C   C18       1.0  0.85329  0.15154  0.97998  1.0000
  C   C19       1.0  0.47613  0.34628  0.95410  1.0000
  C   C20       1.0  0.47921  0.46282  0.93861  1.0000
  N   N1        1.0  0.48428  0.15444  0.32625  1.0000
  N   N2        1.0  0.48431  0.15445  0.63292  1.0000
  C   C21       1.0  0.56932  0.08373  0.41230  1.0000
  C   C22       1.0  0.56933  0.08373  0.56564  1.0000
  C   C23       1.0  0.39927  0.22516  0.54686  1.0000
  C   C24       1.0  0.39925  0.22515  0.39352  1.0000
  H   H1        1.0  0.83921  0.32510  0.95692  1.0000
  H   H2        1.0  0.89171  0.97853  0.00300  1.0000
  H   H3        1.0  0.48910  0.83588  0.26281  1.0000
  C   C25       1.0  0.66284  0.00595  0.33830  1.0000
  C   C26       1.0  0.75637  0.92817  0.43297  1.0000
  C   C27       1.0  0.84989  0.85037  0.35897  1.0000
  C   C28       1.0  0.84988  0.85036  0.19031  1.0000
  C   C29       1.0  0.75635  0.92814  0.09564  1.0000
  C   C30       1.0  0.66283  0.00594  0.16963  1.0000
  H   H4        1.0  0.75638  0.92817  0.55783  1.0000
  H   H5        1.0  0.91913  0.79279  0.42906  1.0000
  H   H6        1.0  0.91911  0.79277  0.13554  1.0000
  H   H7        1.0  0.75634  0.92814  0.97078  1.0000
  H   H8        1.0  0.59359  0.06352  0.09955  1.0000
  H   H9        1.0  0.47947  0.47296  0.17818  1.0000
  C   C31       1.0  0.48952  0.85157  0.74095  1.0000
  C   C32       1.0  0.59803  0.82539  0.63487  1.0000
  C   C33       1.0  0.59963  0.88563  0.48080  1.0000
  C   C34       1.0  0.49270  0.97204  0.43281  1.0000
  C   C35       1.0  0.38417  0.99822  0.53889  1.0000
  C   C36       1.0  0.38258  0.93798  0.69296  1.0000
  H   H10       1.0  0.67720  0.76142  0.67039  1.0000
  H   H11       1.0  0.67996  0.86625  0.40226  1.0000
  H   H12       1.0  0.49387  0.01663  0.31876  1.0000
  H   H13       1.0  0.30501  0.06219  0.50337  1.0000
  H   H14       1.0  0.30224  0.95736  0.77150  1.0000
  H   H15       1.0  0.33000  0.28273  0.32345  1.0000
  H   H16       1.0  0.12939  0.98379  0.00226  1.0000
  C   C37       1.0  0.30575  0.30294  0.62086  1.0000
  C   C38       1.0  0.30583  0.30302  0.78951  1.0000
  C   C39       1.0  0.21231  0.38081  0.86350  1.0000
  C   C40       1.0  0.11870  0.45853  0.76885  1.0000
  C   C41       1.0  0.11861  0.45845  0.60018  1.0000
  C   C42       1.0  0.21214  0.38066  0.52619  1.0000
  H   H17       1.0  0.37513  0.24549  0.85959  1.0000
  H   H18       1.0  0.21237  0.38087  0.98836  1.0000
  H   H19       1.0  0.04947  0.51611  0.82362  1.0000
  H   H20       1.0  0.04932  0.51599  0.53011  1.0000
  H   H21       1.0  0.21207  0.38061  0.40134  1.0000
  C   C43       1.0  0.47907  0.45738  0.66048  1.0000
  C   C44       1.0  0.58839  0.46133  0.55041  1.0000
  C   C45       1.0  0.58680  0.40112  0.41232  1.0000
  C   C46       1.0  0.47588  0.33697  0.38431  1.0000
  C   C47       1.0  0.36655  0.33302  0.49438  1.0000
  C   C48       1.0  0.36815  0.39323  0.63247  1.0000
  H   H22       1.0  0.67051  0.50882  0.57114  1.0000
  H   H23       1.0  0.66773  0.40404  0.33084  1.0000
  H   H24       1.0  0.47470  0.29240  0.28209  1.0000
  H   H25       1.0  0.28444  0.28553  0.47365  1.0000
  H   H26       1.0  0.28721  0.39031  0.71395  1.0000
  H   H27       1.0  0.63857  0.02616  0.63570  1.0000
  H   H28       1.0  0.07686  0.33037  0.95618  1.0000
  H   H29       1.0  0.48476  0.67168  0.66998  1.0000
  H   H30       1.0  0.48382  0.63720  0.28917  1.0000
