data_image0
_chemical_formula_structural       ZrO12Zr5O20C25N2CN2C17N2CN2C50H4CNHCNCNHCNH3CNHCNH2CNH3CNCNCNCNHCNCNCNCNH2CNHCNHCNH4CNHCNHCNCNCNH9
_chemical_formula_sum              "Zr6 O32 C117 N31 H35"
_cell_length_a       23.1964
_cell_length_b       23.0965
_cell_length_c       23.0965
_cell_angle_alpha    89.998
_cell_angle_beta     59.9998
_cell_angle_gamma    59.9983

_space_group_name_H-M_alt    "P 1"
_space_group_IT_number       1

loop_
  _space_group_symop_operation_xyz
  'x, y, z'

loop_
  _atom_site_type_symbol
  _atom_site_label
  _atom_site_symmetry_multiplicity
  _atom_site_fract_x
  _atom_site_fract_y
  _atom_site_fract_z
  _atom_site_occupancy
  Zr  Zr1       1.0  0.63103  0.55775  0.92401  1.0000
  O   O1        1.0  0.75130  0.46530  0.83156  1.0000
  O   O2        1.0  0.51076  0.58609  0.95235  1.0000
  O   O3        1.0  0.63104  0.58609  0.83156  1.0000
  O   O4        1.0  0.63103  0.46530  0.04764  1.0000
  O   O5        1.0  0.63104  0.68137  0.83155  1.0000
  O   O6        1.0  0.63103  0.46530  0.95236  1.0000
  O   O7        1.0  0.41589  0.68138  0.04763  1.0000
  O   O8        1.0  0.84617  0.46530  0.83157  1.0000
  O   O9        1.0  0.56023  0.66929  0.96443  1.0000
  O   O10       1.0  0.56023  0.59818  0.03554  1.0000
  O   O11       1.0  0.70183  0.59818  0.89333  1.0000
  O   O12       1.0  0.70183  0.52707  0.96444  1.0000
  Zr  Zr2       1.0  0.63103  0.70971  0.07597  1.0000
  Zr  Zr3       1.0  0.63104  0.70971  0.92400  1.0000
  Zr  Zr4       1.0  0.63103  0.55775  0.07598  1.0000
  Zr  Zr5       1.0  0.78234  0.55775  0.92401  1.0000
  Zr  Zr6       1.0  0.47972  0.70972  0.07597  1.0000
  O   O13       1.0  0.75130  0.68137  0.04763  1.0000
  O   O14       1.0  0.75131  0.68137  0.83156  1.0000
  O   O15       1.0  0.75130  0.46530  0.04764  1.0000
  O   O16       1.0  0.51076  0.80217  0.16842  1.0000
  O   O17       1.0  0.51077  0.80216  0.95234  1.0000
  O   O18       1.0  0.51075  0.58610  0.16842  1.0000
  O   O19       1.0  0.63103  0.80216  0.95234  1.0000
  O   O20       1.0  0.63102  0.68137  0.16842  1.0000
  O   O21       1.0  0.63102  0.58609  0.16843  1.0000
  O   O22       1.0  0.63103  0.80216  0.04763  1.0000
  O   O23       1.0  0.84618  0.58608  0.83156  1.0000
  O   O24       1.0  0.41589  0.68138  0.16842  1.0000
  O   O25       1.0  0.41589  0.80217  0.16841  1.0000
  O   O26       1.0  0.41589  0.80217  0.04762  1.0000
  O   O27       1.0  0.84617  0.46530  0.95236  1.0000
  O   O28       1.0  0.84617  0.58609  0.95236  1.0000
  O   O29       1.0  0.56023  0.66929  0.10665  1.0000
  O   O30       1.0  0.56023  0.74039  0.03554  1.0000
  O   O31       1.0  0.70183  0.66928  0.96444  1.0000
  O   O32       1.0  0.70183  0.59818  0.03555  1.0000
  C   C1        1.0  0.44177  0.63374  0.99999  1.0000
  C   C2        1.0  0.37753  0.63374  0.99999  1.0000
  C   C3        1.0  0.63103  0.44365  1.00000  1.0000
  C   C4        1.0  0.63103  0.37914  1.00000  1.0000
  C   C5        1.0  0.91469  0.67085  0.96288  1.0000
  C   C6        1.0  0.97505  0.67085  0.96288  1.0000
  C   C7        1.0  0.00523  0.63373  1.00000  1.0000
  C   C8        1.0  0.97506  0.59660  0.03711  1.0000
  C   C9        1.0  0.91471  0.59660  0.03711  1.0000
  C   C10       1.0  0.06726  0.63904  0.06217  1.0000
  C   C11       1.0  0.12760  0.63904  0.06217  1.0000
  C   C12       1.0  0.19138  0.63374  1.00000  1.0000
  C   C13       1.0  0.19479  0.62844  0.93782  1.0000
  C   C14       1.0  0.13444  0.62843  0.93782  1.0000
  C   C15       1.0  0.07067  0.63373  0.00000  1.0000
  C   C16       1.0  0.28699  0.67086  0.96287  1.0000
  C   C17       1.0  0.34736  0.67085  0.96287  1.0000
  C   C18       1.0  0.34736  0.59661  0.03711  1.0000
  C   C19       1.0  0.28700  0.59661  0.03711  1.0000
  C   C20       1.0  0.25682  0.63374  0.99999  1.0000
  C   C21       1.0  0.55711  0.38595  0.03711  1.0000
  C   C22       1.0  0.55711  0.32534  0.03711  1.0000
  C   C23       1.0  0.63103  0.25791  0.99999  1.0000
  C   C24       1.0  0.70495  0.25110  0.96288  1.0000
  C   C25       1.0  0.70495  0.31171  0.96289  1.0000
  N   N1        1.0  0.68605  0.13511  0.93958  1.0000
  N   N2        1.0  0.68604  0.07753  0.93958  1.0000
  C   C26       1.0  0.63103  0.07528  0.99998  1.0000
  N   N3        1.0  0.57602  0.13278  0.06038  1.0000
  N   N4        1.0  0.57602  0.19037  0.06038  1.0000
  C   C27       1.0  0.63104  0.19218  0.99998  1.0000
  C   C28       1.0  0.55712  0.01637  0.03709  1.0000
  C   C29       1.0  0.55712  0.95575  0.03710  1.0000
  C   C30       1.0  0.70496  0.88151  0.96286  1.0000
  C   C31       1.0  0.70495  0.94213  0.96286  1.0000
  C   C32       1.0  0.63103  0.00955  0.99998  1.0000
  C   C33       1.0  0.82029  0.63373  0.99999  1.0000
  C   C34       1.0  0.88453  0.63373  1.00000  1.0000
  C   C35       1.0  0.63104  0.63373  0.80990  1.0000
  C   C36       1.0  0.63104  0.63373  0.74539  1.0000
  C   C37       1.0  0.63103  0.82381  0.99998  1.0000
  C   C38       1.0  0.63103  0.88832  0.99998  1.0000
  C   C39       1.0  0.70493  0.59662  0.24778  1.0000
  C   C40       1.0  0.70494  0.59662  0.30839  1.0000
  C   C41       1.0  0.63103  0.63374  0.37582  1.0000
  C   C42       1.0  0.55710  0.67085  0.38263  1.0000
  C   C43       1.0  0.55710  0.67085  0.32202  1.0000
  N   N5        1.0  0.57601  0.69414  0.49861  1.0000
  N   N6        1.0  0.57602  0.69414  0.55619  1.0000
  C   C44       1.0  0.63103  0.63374  0.55844  1.0000
  N   N7        1.0  0.68605  0.57334  0.50094  1.0000
  N   N8        1.0  0.68604  0.57334  0.44335  1.0000
  C   C45       1.0  0.63102  0.63374  0.44155  1.0000
  C   C46       1.0  0.70495  0.59662  0.61735  1.0000
  C   C47       1.0  0.70496  0.59661  0.67797  1.0000
  C   C48       1.0  0.55711  0.67085  0.75221  1.0000
  C   C49       1.0  0.55711  0.67085  0.69159  1.0000
  C   C50       1.0  0.63104  0.63374  0.62416  1.0000
  C   C51       1.0  0.63102  0.63374  0.19008  1.0000
  C   C52       1.0  0.63102  0.63374  0.25459  1.0000
  C   C53       1.0  0.44177  0.82382  0.99998  1.0000
  C   C54       1.0  0.37754  0.88833  0.99997  1.0000
  C   C55       1.0  0.44176  0.63374  0.19007  1.0000
  C   C56       1.0  0.37752  0.63374  0.25458  1.0000
  C   C57       1.0  0.44176  0.82382  0.19006  1.0000
  C   C58       1.0  0.37753  0.88833  0.25457  1.0000
  C   C59       1.0  0.82030  0.44365  0.80991  1.0000
  C   C60       1.0  0.88453  0.37913  0.74541  1.0000
  C   C61       1.0  0.82029  0.44365  0.00000  1.0000
  C   C62       1.0  0.88452  0.37913  0.00001  1.0000
  C   C63       1.0  0.82030  0.63373  0.80991  1.0000
  C   C64       1.0  0.88454  0.63372  0.74540  1.0000
  C   C65       1.0  0.34737  0.88151  0.96285  1.0000
  C   C66       1.0  0.28703  0.94212  0.96283  1.0000
  C   C67       1.0  0.25684  0.00955  0.99994  1.0000
  C   C68       1.0  0.28701  0.01637  0.03707  1.0000
  C   C69       1.0  0.34736  0.95576  0.03708  1.0000
  C   C70       1.0  0.34736  0.67086  0.32200  1.0000
  C   C71       1.0  0.28701  0.67086  0.38262  1.0000
  C   C72       1.0  0.25682  0.63374  0.37583  1.0000
  C   C73       1.0  0.28700  0.59662  0.30840  1.0000
  C   C74       1.0  0.34735  0.59662  0.24778  1.0000
  C   C75       1.0  0.34736  0.95575  0.24775  1.0000
  C   C76       1.0  0.28702  0.01638  0.30836  1.0000
  C   C77       1.0  0.25683  0.00958  0.37579  1.0000
  C   C78       1.0  0.28700  0.94215  0.38261  1.0000
  C   C79       1.0  0.34735  0.88153  0.32201  1.0000
  C   C80       1.0  0.91470  0.31171  0.75223  1.0000
  C   C81       1.0  0.97507  0.25109  0.69162  1.0000
  C   C82       1.0  0.00526  0.25789  0.62419  1.0000
  C   C83       1.0  0.97509  0.32531  0.61737  1.0000
  C   C84       1.0  0.91473  0.38593  0.67797  1.0000
  C   C85       1.0  0.91469  0.38596  0.03712  1.0000
  C   C86       1.0  0.97505  0.32535  0.03712  1.0000
  C   C87       1.0  0.00524  0.25791  0.00001  1.0000
  C   C88       1.0  0.97507  0.25109  0.96289  1.0000
  C   C89       1.0  0.91471  0.31170  0.96288  1.0000
  C   C90       1.0  0.91470  0.67085  0.75222  1.0000
  C   C91       1.0  0.97505  0.67086  0.69161  1.0000
  C   C92       1.0  0.00524  0.63374  0.62418  1.0000
  C   C93       1.0  0.97507  0.59662  0.61736  1.0000
  C   C94       1.0  0.91472  0.59661  0.67797  1.0000
  H   H1        1.0  0.89012  0.70108  0.93266  1.0000
  H   H2        1.0  0.26244  0.56639  0.06733  1.0000
  H   H3        1.0  0.26247  0.93655  0.93260  1.0000
  H   H4        1.0  0.37191  0.96132  0.06732  1.0000
  C   C95       1.0  0.88151  0.30422  0.82640  1.0000
  N   N9        1.0  0.85652  0.29857  0.88226  1.0000
  H   H5        1.0  0.99963  0.19619  0.69719  1.0000
  C   C96       1.0  0.47580  0.09054  0.07793  1.0000
  N   N10       1.0  0.41455  0.14640  0.10869  1.0000
  C   C97       1.0  0.88153  0.46009  0.67046  1.0000
  N   N11       1.0  0.85654  0.51595  0.66479  1.0000
  H   H6        1.0  0.26241  0.93663  0.43752  1.0000
  C   C98       1.0  0.00830  0.33278  0.54319  1.0000
  N   N12       1.0  0.03331  0.33840  0.48731  1.0000
  H   H7        1.0  0.49693  0.70107  0.69714  1.0000
  H   H8        1.0  0.89012  0.44086  0.06735  1.0000
  H   H9        1.0  0.99965  0.56640  0.56245  1.0000
  C   C99       1.0  0.38052  0.80737  0.32952  1.0000
  N   N13       1.0  0.40550  0.75151  0.33519  1.0000
  H   H10       1.0  0.99961  0.70109  0.69717  1.0000
  C   C100      1.0  0.38057  0.80734  0.92202  1.0000
  N   N14       1.0  0.40557  0.75148  0.89126  1.0000
  H   H11       1.0  0.26242  0.70109  0.93265  1.0000
  H   H12       1.0  0.37194  0.56639  0.06733  1.0000
  C   C101      1.0  0.13821  0.62259  0.86942  1.0000
  N   N15       1.0  0.14105  0.61818  0.81790  1.0000
  H   H13       1.0  0.89016  0.56638  0.67240  1.0000
  H   H14       1.0  0.99961  0.33091  0.06736  1.0000
  H   H15       1.0  0.99966  0.19618  0.93267  1.0000
  C   C102      1.0  0.07165  0.19119  0.55753  1.0000
  N   N16       1.0  0.12166  0.14096  0.50732  1.0000
  C   C103      1.0  0.07163  0.63376  0.55751  1.0000
  N   N17       1.0  0.12164  0.63377  0.50730  1.0000
  C   C104      1.0  0.12384  0.64488  0.13057  1.0000
  N   N18       1.0  0.12100  0.64928  0.18209  1.0000
  C   C105      1.0  0.25378  0.55580  0.30093  1.0000
  N   N19       1.0  0.22875  0.52506  0.29531  1.0000
  H   H16       1.0  0.76514  0.30616  0.93267  1.0000
  C   C106      1.0  0.78625  0.55577  0.17361  1.0000
  N   N20       1.0  0.84750  0.52498  0.11775  1.0000
  C   C107      1.0  0.78626  0.55579  0.30089  1.0000
  N   N21       1.0  0.84750  0.52505  0.29525  1.0000
  C   C108      1.0  0.19045  0.07622  0.99993  1.0000
  N   N22       1.0  0.14045  0.12643  0.99992  1.0000
  C   C109      1.0  0.25380  0.09055  0.07790  1.0000
  N   N23       1.0  0.22877  0.14643  0.10865  1.0000
  H   H17       1.0  0.37192  0.70108  0.93264  1.0000
  H   H18       1.0  0.49692  0.70107  0.43753  1.0000
  C   C110      1.0  0.88150  0.71168  0.82639  1.0000
  N   N24       1.0  0.85650  0.74245  0.88225  1.0000
  H   H19       1.0  0.49693  0.70107  0.80711  1.0000
  C   C111      1.0  0.47580  0.96325  0.07792  1.0000
  N   N25       1.0  0.41455  0.96890  0.10866  1.0000
  H   H20       1.0  0.99962  0.70108  0.93265  1.0000
  C   C112      1.0  0.38052  0.55579  0.17362  1.0000
  N   N26       1.0  0.40549  0.52504  0.11776  1.0000
  H   H21       1.0  0.37193  0.70108  0.32755  1.0000
  H   H22       1.0  0.24672  0.62411  0.88719  1.0000
  H   H23       1.0  0.89015  0.56637  0.06733  1.0000
  H   H24       1.0  0.01533  0.64336  0.11280  1.0000
  C   C113      1.0  0.47580  0.33283  0.07793  1.0000
  N   N27       1.0  0.41455  0.33848  0.10868  1.0000
  H   H25       1.0  0.99964  0.56638  0.06733  1.0000
  C   C114      1.0  0.78626  0.17693  0.92205  1.0000
  N   N28       1.0  0.84750  0.12106  0.89129  1.0000
  H   H26       1.0  0.05439  0.20857  0.00002  1.0000
  C   C115      1.0  0.78627  0.55579  0.54318  1.0000
  N   N29       1.0  0.84752  0.52504  0.48732  1.0000
  C   C116      1.0  0.78627  0.93463  0.92203  1.0000
  N   N30       1.0  0.84752  0.92898  0.89127  1.0000
  C   C117      1.0  0.25383  0.09054  0.30084  1.0000
  N   N31       1.0  0.22884  0.14639  0.29517  1.0000
  H   H27       1.0  0.26245  0.70109  0.43752  1.0000
  H   H28       1.0  0.20769  0.05895  0.42513  1.0000
  H   H29       1.0  0.49692  0.44085  0.06732  1.0000
  H   H30       1.0  0.76514  0.82661  0.93264  1.0000
  H   H31       1.0  0.49691  0.70107  0.32757  1.0000
  H   H32       1.0  0.76515  0.56638  0.67241  1.0000
  H   H33       1.0  0.20768  0.63375  0.42519  1.0000
  H   H34       1.0  0.37193  0.96130  0.19285  1.0000
  H   H35       1.0  0.89015  0.30614  0.93266  1.0000
