data_image0
_chemical_formula_structural       O14Cu4O2C4N2C44N2C20H6F4H2F2H10F10H2F2H2F4
_chemical_formula_sum              "O16 Cu4 C68 N4 H22 F22"
_cell_length_a       10.4897
_cell_length_b       14.9715
_cell_length_c       13.4483
_cell_angle_alpha    90.0068
_cell_angle_beta     89.996
_cell_angle_gamma    95.9233

_space_group_name_H-M_alt    "P 1"
_space_group_IT_number       1

loop_
  _space_group_symop_operation_xyz
  'x, y, z'

loop_
  _atom_site_type_symbol
  _atom_site_label
  _atom_site_symmetry_multiplicity
  _atom_site_fract_x
  _atom_site_fract_y
  _atom_site_fract_z
  _atom_site_occupancy
  O   O1        1.0  0.69260  0.87380  0.91737  1.0000
  O   O2        1.0  0.19260  0.37380  0.41737  1.0000
  O   O3        1.0  0.32126  0.86196  0.91735  1.0000
  O   O4        1.0  0.82126  0.36196  0.41735  1.0000
  O   O5        1.0  0.51688  0.99802  0.91737  1.0000
  O   O6        1.0  0.01688  0.49802  0.41737  1.0000
  O   O7        1.0  0.49698  0.73774  0.91735  1.0000
  O   O8        1.0  0.99698  0.23774  0.41735  1.0000
  O   O9        1.0  0.51686  0.99803  0.08275  1.0000
  O   O10       1.0  0.01686  0.49803  0.58275  1.0000
  O   O11       1.0  0.32124  0.86196  0.08274  1.0000
  O   O12       1.0  0.82124  0.36196  0.58274  1.0000
  O   O13       1.0  0.69257  0.87381  0.08275  1.0000
  O   O14       1.0  0.19257  0.37381  0.58275  1.0000
  Cu  Cu1       1.0  0.50690  0.86789  0.09785  1.0000
  Cu  Cu2       1.0  0.00690  0.36789  0.59785  1.0000
  Cu  Cu3       1.0  0.50693  0.86788  0.90226  1.0000
  Cu  Cu4       1.0  0.00693  0.36788  0.40226  1.0000
  O   O15       1.0  0.49695  0.73774  0.08274  1.0000
  O   O16       1.0  0.99695  0.23774  0.58274  1.0000
  C   C1        1.0  0.27373  0.86286  0.00004  1.0000
  C   C2        1.0  0.77373  0.36286  0.50004  1.0000
  C   C3        1.0  0.13213  0.86553  0.00004  1.0000
  C   C4        1.0  0.63213  0.36553  0.50004  1.0000
  N   N1        1.0  0.50689  0.86790  0.23541  1.0000
  N   N2        1.0  0.00689  0.36790  0.73541  1.0000
  C   C5        1.0  0.51598  0.03136  0.00006  1.0000
  C   C6        1.0  0.01598  0.53136  0.50006  1.0000
  C   C7        1.0  0.51331  0.13067  0.00006  1.0000
  C   C8        1.0  0.01331  0.63067  0.50006  1.0000
  C   C9        1.0  0.06499  0.95211  0.00005  1.0000
  C   C10       1.0  0.56499  0.45211  0.50005  1.0000
  C   C11       1.0  0.97241  0.91121  0.91851  1.0000
  C   C12       1.0  0.47241  0.41121  0.41851  1.0000
  C   C13       1.0  0.97242  0.91119  0.08156  1.0000
  C   C14       1.0  0.47241  0.41119  0.58156  1.0000
  C   C15       1.0  0.04141  0.82459  0.91843  1.0000
  C   C16       1.0  0.54141  0.32460  0.41843  1.0000
  C   C17       1.0  0.04143  0.82459  0.08156  1.0000
  C   C18       1.0  0.54143  0.32460  0.58156  1.0000
  C   C19       1.0  0.94887  0.78363  0.99999  1.0000
  C   C20       1.0  0.44887  0.28363  0.49999  1.0000
  C   C21       1.0  0.74011  0.87291  0.00006  1.0000
  C   C22       1.0  0.24011  0.37291  0.50006  1.0000
  C   C23       1.0  0.88170  0.87024  0.00006  1.0000
  C   C24       1.0  0.38170  0.37023  0.50006  1.0000
  C   C25       1.0  0.49786  0.70441  0.00004  1.0000
  C   C26       1.0  0.99786  0.20441  0.50004  1.0000
  C   C27       1.0  0.50052  0.60510  0.00004  1.0000
  C   C28       1.0  0.00052  0.10510  0.50004  1.0000
  C   C29       1.0  0.62823  0.18724  0.00006  1.0000
  C   C30       1.0  0.12823  0.68724  0.50006  1.0000
  C   C31       1.0  0.62572  0.28055  0.00006  1.0000
  C   C32       1.0  0.12572  0.78055  0.50006  1.0000
  C   C33       1.0  0.50828  0.31729  0.00005  1.0000
  C   C34       1.0  0.00828  0.81729  0.50005  1.0000
  C   C35       1.0  0.39335  0.26072  0.00004  1.0000
  C   C36       1.0  0.89335  0.76072  0.50004  1.0000
  C   C37       1.0  0.39587  0.16740  0.00004  1.0000
  C   C38       1.0  0.89587  0.66740  0.50004  1.0000
  C   C39       1.0  0.38812  0.45521  0.00003  1.0000
  C   C40       1.0  0.88812  0.95521  0.50003  1.0000
  C   C41       1.0  0.38560  0.54853  0.00003  1.0000
  C   C42       1.0  0.88560  0.04853  0.50003  1.0000
  C   C43       1.0  0.61797  0.56836  0.00005  1.0000
  C   C44       1.0  0.11797  0.06836  0.50005  1.0000
  C   C45       1.0  0.62048  0.47505  0.00005  1.0000
  C   C46       1.0  0.12048  0.97505  0.50005  1.0000
  C   C47       1.0  0.50555  0.41847  0.00004  1.0000
  C   C48       1.0  0.00555  0.91847  0.50004  1.0000
  N   N3        1.0  0.50695  0.86788  0.76470  1.0000
  N   N4        1.0  0.00695  0.36788  0.26470  1.0000
  C   C49       1.0  0.59354  0.92812  0.28746  1.0000
  C   C50       1.0  0.09354  0.42812  0.78746  1.0000
  C   C51       1.0  0.59355  0.92812  0.39156  1.0000
  C   C52       1.0  0.09355  0.42812  0.89156  1.0000
  C   C53       1.0  0.50691  0.86789  0.44361  1.0000
  C   C54       1.0  0.00691  0.36789  0.94361  1.0000
  C   C55       1.0  0.42026  0.80766  0.39156  1.0000
  C   C56       1.0  0.92026  0.30767  0.89156  1.0000
  C   C57       1.0  0.42024  0.80767  0.28746  1.0000
  C   C58       1.0  0.92024  0.30767  0.78746  1.0000
  C   C59       1.0  0.42029  0.80766  0.60854  1.0000
  C   C60       1.0  0.92029  0.30766  0.10854  1.0000
  C   C61       1.0  0.42031  0.80765  0.71265  1.0000
  C   C62       1.0  0.92031  0.30765  0.21265  1.0000
  C   C63       1.0  0.59360  0.92811  0.71264  1.0000
  C   C64       1.0  0.09360  0.42811  0.21264  1.0000
  C   C65       1.0  0.59358  0.92812  0.60854  1.0000
  C   C66       1.0  0.09358  0.42812  0.10854  1.0000
  C   C67       1.0  0.50693  0.86789  0.55649  1.0000
  C   C68       1.0  0.00693  0.36789  0.05649  1.0000
  H   H1        1.0  0.11551  0.02328  0.99995  1.0000
  H   H2        1.0  0.61551  0.52328  0.49995  1.0000
  H   H3        1.0  0.34976  0.75861  0.75503  1.0000
  H   H4        1.0  0.84976  0.25861  0.25503  1.0000
  H   H5        1.0  0.72386  0.15733  0.00008  1.0000
  H   H6        1.0  0.22386  0.65733  0.50008  1.0000
  F   F1        1.0  0.74804  0.34076  0.00006  1.0000
  F   F2        1.0  0.24803  0.84076  0.50006  1.0000
  F   F3        1.0  0.68582  0.99221  0.76804  1.0000
  F   F4        1.0  0.18582  0.49221  0.26804  1.0000
  H   H7        1.0  0.34969  0.75863  0.24508  1.0000
  H   H8        1.0  0.84969  0.25863  0.74508  1.0000
  F   F5        1.0  0.32805  0.74357  0.44696  1.0000
  F   F6        1.0  0.82805  0.24357  0.94696  1.0000
  H   H9        1.0  0.07182  0.78799  0.84941  1.0000
  H   H10       1.0  0.57182  0.28799  0.34941  1.0000
  H   H11       1.0  0.34973  0.75862  0.56617  1.0000
  H   H12       1.0  0.84972  0.25862  0.06617  1.0000
  H   H13       1.0  0.66410  0.97716  0.43394  1.0000
  H   H14       1.0  0.16410  0.47716  0.93394  1.0000
  H   H15       1.0  0.89862  0.71239  0.99994  1.0000
  H   H16       1.0  0.39862  0.21239  0.49994  1.0000
  H   H17       1.0  0.94185  0.94784  0.15050  1.0000
  H   H18       1.0  0.44185  0.44784  0.65050  1.0000
  F   F7        1.0  0.93244  0.95908  0.82840  1.0000
  F   F8        1.0  0.43244  0.45908  0.32840  1.0000
  F   F9        1.0  0.74029  0.62857  0.00005  1.0000
  F   F10       1.0  0.24029  0.12857  0.50005  1.0000
  F   F11       1.0  0.27355  0.10720  0.00003  1.0000
  F   F12       1.0  0.77355  0.60720  0.50003  1.0000
  F   F13       1.0  0.68575  0.99222  0.23207  1.0000
  F   F14       1.0  0.18575  0.49222  0.73207  1.0000
  F   F15       1.0  0.08144  0.77676  0.17167  1.0000
  F   F16       1.0  0.58144  0.27676  0.67166  1.0000
  H   H19       1.0  0.71611  0.44514  0.00006  1.0000
  H   H20       1.0  0.21611  0.94514  0.50006  1.0000
  F   F17       1.0  0.26580  0.39500  0.00002  1.0000
  F   F18       1.0  0.76580  0.89500  0.50003  1.0000
  H   H21       1.0  0.29774  0.29064  0.00002  1.0000
  H   H22       1.0  0.79774  0.79064  0.50003  1.0000
  F   F19       1.0  0.26061  0.58763  0.00002  1.0000
  F   F20       1.0  0.76061  0.08763  0.50003  1.0000
  F   F21       1.0  0.68579  0.99221  0.55314  1.0000
  F   F22       1.0  0.18579  0.49221  0.05314  1.0000
