data_image0
_chemical_formula_structural       O7Cu2OC24N2C12H2C6H9C6H11C6H5C6H5
_chemical_formula_sum              "O8 Cu2 C60 N2 H32"
_cell_length_a       17.6991
_cell_length_b       14.5197
_cell_length_c       16.1763
_cell_angle_alpha    89.9923
_cell_angle_beta     89.9986
_cell_angle_gamma    83.4816

_space_group_name_H-M_alt    "P 1"
_space_group_IT_number       1

loop_
  _space_group_symop_operation_xyz
  'x, y, z'

loop_
  _atom_site_type_symbol
  _atom_site_label
  _atom_site_symmetry_multiplicity
  _atom_site_fract_x
  _atom_site_fract_y
  _atom_site_fract_z
  _atom_site_occupancy
  O   O1        1.0  0.00441  0.11662  0.93137  1.0000
  O   O2        1.0  0.78408  0.13180  0.93134  1.0000
  O   O3        1.0  0.90009  0.98995  0.93136  1.0000
  O   O4        1.0  0.88840  0.25847  0.93135  1.0000
  O   O5        1.0  0.90007  0.98994  0.06885  1.0000
  O   O6        1.0  0.78406  0.13179  0.06883  1.0000
  O   O7        1.0  0.00440  0.11661  0.06886  1.0000
  Cu  Cu1       1.0  0.89423  0.12420  0.08140  1.0000
  Cu  Cu2       1.0  0.89425  0.12421  0.91880  1.0000
  O   O8        1.0  0.88839  0.25847  0.06884  1.0000
  C   C1        1.0  0.75587  0.13125  0.00008  1.0000
  C   C2        1.0  0.67185  0.12962  0.00007  1.0000
  C   C3        1.0  0.89953  0.95559  0.00011  1.0000
  C   C4        1.0  0.89790  0.85321  0.00011  1.0000
  C   C5        1.0  0.62347  0.21288  0.00007  1.0000
  C   C6        1.0  0.54452  0.21134  0.00008  1.0000
  C   C7        1.0  0.51395  0.12654  0.00009  1.0000
  C   C8        1.0  0.56234  0.04327  0.00010  1.0000
  C   C9        1.0  0.64129  0.04481  0.00009  1.0000
  C   C10       1.0  0.24396  0.03706  0.00012  1.0000
  C   C11       1.0  0.16501  0.03553  0.00012  1.0000
  C   C12       1.0  0.14719  0.20360  0.00010  1.0000
  C   C13       1.0  0.22614  0.20513  0.00010  1.0000
  C   C14       1.0  0.27452  0.12187  0.00011  1.0000
  C   C15       1.0  0.36012  0.12354  0.00010  1.0000
  C   C16       1.0  0.42835  0.12487  0.00009  1.0000
  C   C17       1.0  0.89190  0.47834  0.00009  1.0000
  C   C18       1.0  0.89356  0.58264  0.00009  1.0000
  C   C19       1.0  0.89490  0.66577  0.00010  1.0000
  C   C20       1.0  0.89657  0.77008  0.00010  1.0000
  C   C21       1.0  0.03260  0.11716  0.00012  1.0000
  C   C22       1.0  0.11663  0.11879  0.00012  1.0000
  C   C23       1.0  0.88894  0.29283  0.00009  1.0000
  C   C24       1.0  0.89057  0.39520  0.00009  1.0000
  N   N1        1.0  0.89422  0.12419  0.19577  1.0000
  N   N2        1.0  0.89426  0.12421  0.80443  1.0000
  C   C25       1.0  0.94560  0.06141  0.23904  1.0000
  C   C26       1.0  0.94561  0.06141  0.32559  1.0000
  C   C27       1.0  0.89423  0.12420  0.36886  1.0000
  C   C28       1.0  0.84284  0.18699  0.32558  1.0000
  C   C29       1.0  0.84283  0.18698  0.23903  1.0000
  C   C30       1.0  0.84287  0.18700  0.67461  1.0000
  C   C31       1.0  0.84288  0.18700  0.76116  1.0000
  C   C32       1.0  0.94564  0.06143  0.76116  1.0000
  C   C33       1.0  0.94563  0.06142  0.67462  1.0000
  C   C34       1.0  0.89424  0.12421  0.63134  1.0000
  C   C35       1.0  0.89424  0.12421  0.53750  1.0000
  C   C36       1.0  0.89424  0.12420  0.46270  1.0000
  H   H1        1.0  0.50513  0.27914  0.00007  1.0000
  H   H2        1.0  0.98747  0.01030  0.63939  1.0000
  C   C37       1.0  0.00213  0.99235  0.37319  1.0000
  C   C38       1.0  0.05867  0.92330  0.32560  1.0000
  C   C39       1.0  0.11520  0.85424  0.37321  1.0000
  C   C40       1.0  0.11519  0.85422  0.46841  1.0000
  C   C41       1.0  0.05865  0.92327  0.51600  1.0000
  C   C42       1.0  0.00212  0.99233  0.46839  1.0000
  H   H3        1.0  0.05868  0.92331  0.25513  1.0000
  H   H4        1.0  0.15705  0.80312  0.33798  1.0000
  H   H5        1.0  0.15703  0.80310  0.50365  1.0000
  H   H6        1.0  0.05864  0.92326  0.58648  1.0000
  H   H7        1.0  0.96027  0.04345  0.50363  1.0000
  H   H8        1.0  0.80104  0.23814  0.79639  1.0000
  H   H9        1.0  0.98748  0.01030  0.79640  1.0000
  H   H10       1.0  0.80100  0.23811  0.36082  1.0000
  H   H11       1.0  0.80099  0.23811  0.20380  1.0000
  C   C43       1.0  0.13139  0.94224  0.00014  1.0000
  C   C44       1.0  0.07957  0.91807  0.92875  1.0000
  C   C45       1.0  0.04594  0.82479  0.92876  1.0000
  C   C46       1.0  0.06414  0.75568  0.00017  1.0000
  C   C47       1.0  0.11597  0.77985  0.07157  1.0000
  C   C48       1.0  0.14959  0.87313  0.07155  1.0000
  H   H12       1.0  0.06609  0.96923  0.87588  1.0000
  H   H13       1.0  0.00758  0.80690  0.87591  1.0000
  H   H14       1.0  0.03925  0.68663  0.00018  1.0000
  H   H15       1.0  0.12944  0.72869  0.12444  1.0000
  H   H16       1.0  0.18795  0.89102  0.12440  1.0000
  H   H17       1.0  0.80102  0.23812  0.63938  1.0000
  H   H18       1.0  0.53745  0.97423  0.00012  1.0000
  H   H19       1.0  0.28335  0.96926  0.00013  1.0000
  H   H20       1.0  0.64834  0.28194  0.00006  1.0000
  H   H21       1.0  0.98745  0.01028  0.20381  1.0000
  H   H22       1.0  0.10779  0.27140  0.00010  1.0000
  C   C49       1.0  0.25976  0.29842  0.00009  1.0000
  C   C50       1.0  0.20654  0.39001  0.00009  1.0000
  C   C51       1.0  0.24015  0.48329  0.00009  1.0000
  C   C52       1.0  0.32699  0.48499  0.00008  1.0000
  C   C53       1.0  0.38022  0.39339  0.00008  1.0000
  C   C54       1.0  0.34660  0.30011  0.00009  1.0000
  H   H23       1.0  0.14225  0.38876  0.00010  1.0000
  H   H24       1.0  0.20075  0.55110  0.00009  1.0000
  H   H25       1.0  0.35188  0.55404  0.00008  1.0000
  H   H26       1.0  0.44450  0.39464  0.00008  1.0000
  H   H27       1.0  0.38600  0.23230  0.00009  1.0000
  C   C55       1.0  0.69451  0.95322  0.00010  1.0000
  C   C56       1.0  0.69101  0.88368  0.07150  1.0000
  C   C57       1.0  0.74424  0.79209  0.07151  1.0000
  C   C58       1.0  0.80096  0.77004  0.00011  1.0000
  C   C59       1.0  0.80447  0.83958  0.92870  1.0000
  C   C60       1.0  0.75124  0.93117  0.92870  1.0000
  H   H28       1.0  0.64902  0.90000  0.12435  1.0000
  H   H29       1.0  0.74164  0.74060  0.12437  1.0000
  H   H30       1.0  0.84036  0.70223  0.00012  1.0000
  H   H31       1.0  0.84646  0.82326  0.87585  1.0000
  H   H32       1.0  0.75384  0.98265  0.87583  1.0000
