data_image0
_chemical_formula_structural       O14Zn4O2C60N4C20H6C2H6C2H8C2H10C2H6C2H10C2H8C2H8C2H6C2H12C2H6C2H10
_chemical_formula_sum              "O16 Zn4 C102 N4 H96"
_cell_length_a       17.0383
_cell_length_b       14.9715
_cell_length_c       14.0482
_cell_angle_alpha    89.9941
_cell_angle_beta     89.9935
_cell_angle_gamma    87.3621

_space_group_name_H-M_alt    "P 1"
_space_group_IT_number       1

loop_
  _space_group_symop_operation_xyz
  'x, y, z'

loop_
  _atom_site_type_symbol
  _atom_site_label
  _atom_site_symmetry_multiplicity
  _atom_site_fract_x
  _atom_site_fract_y
  _atom_site_fract_z
  _atom_site_occupancy
  O   O1        1.0  0.10188  0.19458  0.92085  1.0000
  O   O2        1.0  0.60188  0.69458  0.42085  1.0000
  O   O3        1.0  0.11409  0.93509  0.92085  1.0000
  O   O4        1.0  0.61409  0.43509  0.42085  1.0000
  O   O5        1.0  0.99417  0.06329  0.92086  1.0000
  O   O6        1.0  0.49417  0.56329  0.42086  1.0000
  O   O7        1.0  0.22180  0.06638  0.92084  1.0000
  O   O8        1.0  0.72180  0.56638  0.42084  1.0000
  O   O9        1.0  0.99416  0.06327  0.07918  1.0000
  O   O10       1.0  0.49416  0.56327  0.57918  1.0000
  O   O11       1.0  0.11408  0.93507  0.07917  1.0000
  O   O12       1.0  0.61408  0.43507  0.57917  1.0000
  O   O13       1.0  0.10188  0.19456  0.07917  1.0000
  O   O14       1.0  0.60188  0.69456  0.57917  1.0000
  Zn  Zn1       1.0  0.10798  0.06481  0.10431  1.0000
  Zn  Zn2       1.0  0.60798  0.56481  0.60431  1.0000
  Zn  Zn3       1.0  0.10799  0.06484  0.89571  1.0000
  Zn  Zn4       1.0  0.60799  0.56484  0.39571  1.0000
  O   O15       1.0  0.22180  0.06636  0.07916  1.0000
  O   O16       1.0  0.72180  0.56636  0.57916  1.0000
  C   C1        1.0  0.11354  0.90172  0.00001  1.0000
  C   C2        1.0  0.61354  0.40172  0.50001  1.0000
  C   C3        1.0  0.11191  0.80230  0.00000  1.0000
  C   C4        1.0  0.61191  0.30230  0.50000  1.0000
  C   C5        1.0  0.11113  0.75558  0.08631  1.0000
  C   C6        1.0  0.61113  0.25558  0.58631  1.0000
  C   C7        1.0  0.10958  0.66217  0.08631  1.0000
  C   C8        1.0  0.60958  0.16217  0.58631  1.0000
  C   C9        1.0  0.10882  0.61547  0.00001  1.0000
  C   C10       1.0  0.60882  0.11547  0.50001  1.0000
  C   C11       1.0  0.10959  0.66219  0.91370  1.0000
  C   C12       1.0  0.60959  0.16219  0.41370  1.0000
  C   C13       1.0  0.11113  0.75560  0.91370  1.0000
  C   C14       1.0  0.61113  0.25560  0.41370  1.0000
  C   C15       1.0  0.10637  0.46748  0.91370  1.0000
  C   C16       1.0  0.60637  0.96748  0.41370  1.0000
  C   C17       1.0  0.10483  0.37406  0.91370  1.0000
  C   C18       1.0  0.60483  0.87406  0.41370  1.0000
  C   C19       1.0  0.10483  0.37406  0.08631  1.0000
  C   C20       1.0  0.60483  0.87406  0.58631  1.0000
  C   C21       1.0  0.10637  0.46747  0.08631  1.0000
  C   C22       1.0  0.60637  0.96747  0.58631  1.0000
  C   C23       1.0  0.10714  0.51418  0.00001  1.0000
  C   C24       1.0  0.60714  0.01418  0.50001  1.0000
  C   C25       1.0  0.96503  0.06048  0.00002  1.0000
  C   C26       1.0  0.46503  0.56048  0.50002  1.0000
  C   C27       1.0  0.87823  0.05211  0.00002  1.0000
  C   C28       1.0  0.37823  0.55211  0.50002  1.0000
  C   C29       1.0  0.82821  0.12895  0.00002  1.0000
  C   C30       1.0  0.32821  0.62895  0.50002  1.0000
  C   C31       1.0  0.74665  0.12108  0.00001  1.0000
  C   C32       1.0  0.24665  0.62108  0.50001  1.0000
  C   C33       1.0  0.71511  0.03637  0.00000  1.0000
  C   C34       1.0  0.21511  0.53637  0.50000  1.0000
  C   C35       1.0  0.76515  0.95952  1.00000  1.0000
  C   C36       1.0  0.26515  0.45952  0.50000  1.0000
  C   C37       1.0  0.84670  0.96739  0.00000  1.0000
  C   C38       1.0  0.34670  0.46739  0.50000  1.0000
  C   C39       1.0  0.46932  0.00856  0.99999  1.0000
  C   C40       1.0  0.96932  0.50856  0.49999  1.0000
  C   C41       1.0  0.38776  0.00070  0.99999  1.0000
  C   C42       1.0  0.88776  0.50070  0.49999  1.0000
  C   C43       1.0  0.36927  0.16226  0.00000  1.0000
  C   C44       1.0  0.86927  0.66226  0.50000  1.0000
  C   C45       1.0  0.45083  0.17013  0.00001  1.0000
  C   C46       1.0  0.95083  0.67013  0.50001  1.0000
  C   C47       1.0  0.50085  0.09328  1.00000  1.0000
  C   C48       1.0  0.00085  0.59328  0.50000  1.0000
  C   C49       1.0  0.63175  0.02832  1.00000  1.0000
  C   C50       1.0  0.13175  0.52832  0.50000  1.0000
  C   C51       1.0  0.58422  0.10132  1.00000  1.0000
  C   C52       1.0  0.08422  0.60132  0.50000  1.0000
  C   C53       1.0  0.25093  0.06917  0.00000  1.0000
  C   C54       1.0  0.75093  0.56917  0.50000  1.0000
  C   C55       1.0  0.33773  0.07754  0.99999  1.0000
  C   C56       1.0  0.83773  0.57754  0.49999  1.0000
  C   C57       1.0  0.10242  0.22793  0.00001  1.0000
  C   C58       1.0  0.60242  0.72793  0.50001  1.0000
  C   C59       1.0  0.10406  0.32735  0.00001  1.0000
  C   C60       1.0  0.60406  0.82735  0.50001  1.0000
  N   N1        1.0  0.10797  0.06481  0.24667  1.0000
  N   N2        1.0  0.60797  0.56481  0.74667  1.0000
  N   N3        1.0  0.10799  0.06485  0.75335  1.0000
  N   N4        1.0  0.60799  0.56485  0.25335  1.0000
  C   C61       1.0  0.05489  0.12159  0.29649  1.0000
  C   C62       1.0  0.55489  0.62159  0.79649  1.0000
  C   C63       1.0  0.05489  0.12160  0.39615  1.0000
  C   C64       1.0  0.55489  0.62160  0.89615  1.0000
  C   C65       1.0  0.10798  0.06482  0.44598  1.0000
  C   C66       1.0  0.60798  0.56482  0.94598  1.0000
  C   C67       1.0  0.16106  0.00803  0.39615  1.0000
  C   C68       1.0  0.66106  0.50803  0.89615  1.0000
  C   C69       1.0  0.16105  0.00802  0.29650  1.0000
  C   C70       1.0  0.66105  0.50802  0.79650  1.0000
  C   C71       1.0  0.16106  0.00805  0.60387  1.0000
  C   C72       1.0  0.66106  0.50805  0.10387  1.0000
  C   C73       1.0  0.16107  0.00806  0.70353  1.0000
  C   C74       1.0  0.66107  0.50806  0.20353  1.0000
  C   C75       1.0  0.05490  0.12164  0.70352  1.0000
  C   C76       1.0  0.55490  0.62164  0.20352  1.0000
  C   C77       1.0  0.05490  0.12163  0.60386  1.0000
  C   C78       1.0  0.55490  0.62163  0.10386  1.0000
  C   C79       1.0  0.10798  0.06483  0.55404  1.0000
  C   C80       1.0  0.60798  0.56483  0.05404  1.0000
  H   H1        1.0  0.10700  0.50552  0.84342  1.0000
  H   H2        1.0  0.60700  0.00551  0.34342  1.0000
  H   H3        1.0  0.20427  0.96177  0.25593  1.0000
  H   H4        1.0  0.70427  0.46177  0.75593  1.0000
  H   H5        1.0  0.70592  0.18366  0.00001  1.0000
  H   H6        1.0  0.20592  0.68366  0.50001  1.0000
  C   C81       1.0  0.48551  0.26331  0.00000  1.0000
  C   C82       1.0  0.98551  0.76331  0.50000  1.0000
  H   H7        1.0  0.44403  0.30795  0.99999  1.0000
  H   H8        1.0  0.94403  0.80795  0.49999  1.0000
  H   H9        1.0  0.51693  0.26974  0.05521  1.0000
  H   H10       1.0  0.01693  0.76974  0.55521  1.0000
  H   H11       1.0  0.51694  0.26974  0.94478  1.0000
  H   H12       1.0  0.01694  0.76974  0.44478  1.0000
  C   C83       1.0  0.11196  0.80695  0.18124  1.0000
  C   C84       1.0  0.61196  0.30695  0.68124  1.0000
  H   H13       1.0  0.11127  0.76575  0.23264  1.0000
  H   H14       1.0  0.61127  0.26575  0.73264  1.0000
  H   H15       1.0  0.15812  0.84004  0.18484  1.0000
  H   H16       1.0  0.65812  0.34004  0.68484  1.0000
  H   H17       1.0  0.06699  0.84674  0.18482  1.0000
  H   H18       1.0  0.56699  0.34674  0.68482  1.0000
  H   H19       1.0  0.10894  0.62414  0.15658  1.0000
  H   H20       1.0  0.60894  0.12414  0.65658  1.0000
  C   C85       1.0  0.99651  0.18410  0.75832  1.0000
  C   C86       1.0  0.49651  0.68410  0.25832  1.0000
  H   H21       1.0  0.00410  0.17597  0.82481  1.0000
  H   H22       1.0  0.50410  0.67597  0.32481  1.0000
  H   H23       1.0  0.00508  0.24444  0.74197  1.0000
  H   H24       1.0  0.50508  0.74444  0.24197  1.0000
  H   H25       1.0  0.94431  0.17041  0.74199  1.0000
  H   H26       1.0  0.44431  0.67041  0.24199  1.0000
  H   H27       1.0  0.10700  0.50549  0.15659  1.0000
  H   H28       1.0  0.60700  0.00549  0.65659  1.0000
  H   H29       1.0  0.20429  0.96183  0.74410  1.0000
  H   H30       1.0  0.70429  0.46183  0.24410  1.0000
  C   C87       1.0  0.52434  0.92403  1.00000  1.0000
  C   C88       1.0  0.02434  0.42403  0.50000  1.0000
  H   H31       1.0  0.49388  0.87245  0.00001  1.0000
  H   H32       1.0  0.99388  0.37245  0.50001  1.0000
  H   H33       1.0  0.55655  0.92374  0.94479  1.0000
  H   H34       1.0  0.05655  0.42374  0.44479  1.0000
  H   H35       1.0  0.55653  0.92374  0.05522  1.0000
  H   H36       1.0  0.05653  0.42374  0.55522  1.0000
  C   C89       1.0  0.99651  0.18408  0.54905  1.0000
  C   C90       1.0  0.49651  0.68408  0.04905  1.0000
  H   H37       1.0  0.96489  0.21790  0.59299  1.0000
  H   H38       1.0  0.46489  0.71790  0.09299  1.0000
  H   H39       1.0  0.02469  0.22345  0.51015  1.0000
  H   H40       1.0  0.52469  0.72345  0.01015  1.0000
  H   H41       1.0  0.96391  0.14941  0.51019  1.0000
  H   H42       1.0  0.46391  0.64941  0.01019  1.0000
  H   H43       1.0  0.85387  0.19793  0.00003  1.0000
  H   H44       1.0  0.35387  0.69793  0.50003  1.0000
  H   H45       1.0  0.11176  0.79363  0.84342  1.0000
  H   H46       1.0  0.61176  0.29363  0.34342  1.0000
  C   C91       1.0  0.10433  0.32265  0.18125  1.0000
  C   C92       1.0  0.60433  0.82265  0.68125  1.0000
  H   H47       1.0  0.10340  0.26032  0.16889  1.0000
  H   H48       1.0  0.60340  0.76032  0.66889  1.0000
  H   H49       1.0  0.15025  0.33474  0.21643  1.0000
  H   H50       1.0  0.65025  0.83474  0.71643  1.0000
  H   H51       1.0  0.05912  0.34116  0.21699  1.0000
  H   H52       1.0  0.55912  0.84116  0.71699  1.0000
  H   H53       1.0  0.20428  0.96180  0.56330  1.0000
  H   H54       1.0  0.70428  0.46180  0.06330  1.0000
  C   C93       1.0  0.31424  0.24679  1.00000  1.0000
  C   C94       1.0  0.81424  0.74679  0.50000  1.0000
  H   H55       1.0  0.26115  0.22997  0.99999  1.0000
  H   H56       1.0  0.76115  0.72997  0.49999  1.0000
  H   H57       1.0  0.32380  0.28127  0.05520  1.0000
  H   H58       1.0  0.82380  0.78127  0.55520  1.0000
  H   H59       1.0  0.32381  0.28127  0.94478  1.0000
  H   H60       1.0  0.82381  0.78127  0.44478  1.0000
  H   H61       1.0  0.20427  0.96179  0.43673  1.0000
  H   H62       1.0  0.70427  0.46179  0.93673  1.0000
  C   C95       1.0  0.10398  0.32269  0.81878  1.0000
  C   C96       1.0  0.60398  0.82269  0.31878  1.0000
  H   H63       1.0  0.10296  0.26037  0.83114  1.0000
  H   H64       1.0  0.60296  0.76037  0.33114  1.0000
  H   H65       1.0  0.05867  0.34136  0.78332  1.0000
  H   H66       1.0  0.55867  0.84136  0.28332  1.0000
  H   H67       1.0  0.14980  0.33464  0.78331  1.0000
  H   H68       1.0  0.64980  0.83464  0.28331  1.0000
  C   C97       1.0  0.73047  0.86633  0.99999  1.0000
  C   C98       1.0  0.23047  0.36633  0.49999  1.0000
  H   H69       1.0  0.77194  0.82169  0.99997  1.0000
  H   H70       1.0  0.27194  0.32170  0.49997  1.0000
  H   H71       1.0  0.69903  0.85989  0.05519  1.0000
  H   H72       1.0  0.19903  0.35989  0.55519  1.0000
  H   H73       1.0  0.69904  0.85992  0.94477  1.0000
  H   H74       1.0  0.19904  0.35992  0.44477  1.0000
  H   H75       1.0  0.36209  0.93171  0.00000  1.0000
  H   H76       1.0  0.86209  0.43171  0.50000  1.0000
  H   H77       1.0  0.10896  0.62416  0.84343  1.0000
  H   H78       1.0  0.60896  0.12416  0.34343  1.0000
  H   H79       1.0  0.88743  0.90481  1.00000  1.0000
  H   H80       1.0  0.38743  0.40481  0.50000  1.0000
  C   C99       1.0  0.61890  0.19450  0.00000  1.0000
  C   C100      1.0  0.11890  0.69450  0.50000  1.0000
  H   H81       1.0  0.57742  0.23915  0.00000  1.0000
  H   H82       1.0  0.07742  0.73915  0.50000  1.0000
  H   H83       1.0  0.65032  0.20092  0.05521  1.0000
  H   H84       1.0  0.15032  0.70092  0.55521  1.0000
  H   H85       1.0  0.65033  0.20094  0.94479  1.0000
  H   H86       1.0  0.15033  0.70094  0.44479  1.0000
  C   C101      1.0  0.99651  0.18406  0.24168  1.0000
  C   C102      1.0  0.49651  0.68406  0.74168  1.0000
  H   H87       1.0  0.00411  0.17593  0.17519  1.0000
  H   H88       1.0  0.50411  0.67593  0.67519  1.0000
  H   H89       1.0  0.94431  0.17038  0.25802  1.0000
  H   H90       1.0  0.44431  0.67038  0.75802  1.0000
  H   H91       1.0  0.00510  0.24440  0.25800  1.0000
  H   H92       1.0  0.50510  0.74440  0.75800  1.0000
  H   H93       1.0  0.60606  0.95935  1.00000  1.0000
  H   H94       1.0  0.10606  0.45935  0.50000  1.0000
  H   H95       1.0  0.01167  0.16784  0.43671  1.0000
  H   H96       1.0  0.51167  0.66784  0.93671  1.0000
