data_image0
_chemical_formula_structural       O14Zn4O2C4N2C40N2C24H2Cl4H6Cl2H4Cl6H2Cl4H4Cl8H2Cl2H6Cl2H2
_chemical_formula_sum              "O16 Zn4 C68 N4 H28 Cl28"
_cell_length_a       14.9715
_cell_length_b       9.61615
_cell_length_c       14.9715
_cell_angle_alpha    90.0025
_cell_angle_beta     83.6141
_cell_angle_gamma    90.0019

_space_group_name_H-M_alt    "P 1"
_space_group_IT_number       1

loop_
  _space_group_symop_operation_xyz
  'x, y, z'

loop_
  _atom_site_type_symbol
  _atom_site_label
  _atom_site_symmetry_multiplicity
  _atom_site_fract_x
  _atom_site_fract_y
  _atom_site_fract_z
  _atom_site_occupancy
  O   O1        1.0  0.18695  0.11549  0.11656  1.0000
  O   O2        1.0  0.68695  0.61549  0.61656  1.0000
  O   O3        1.0  0.92655  0.11552  0.13052  1.0000
  O   O4        1.0  0.42655  0.61552  0.63052  1.0000
  O   O5        1.0  0.06373  0.11549  0.99334  1.0000
  O   O6        1.0  0.56373  0.61549  0.49334  1.0000
  O   O7        1.0  0.04977  0.11552  0.25374  1.0000
  O   O8        1.0  0.54977  0.61552  0.75374  1.0000
  O   O9        1.0  0.06371  0.88420  0.99334  1.0000
  O   O10       1.0  0.56371  0.38420  0.49334  1.0000
  O   O11       1.0  0.92653  0.88423  0.13052  1.0000
  O   O12       1.0  0.42653  0.38423  0.63052  1.0000
  O   O13       1.0  0.18693  0.88419  0.11656  1.0000
  O   O14       1.0  0.68693  0.38420  0.61656  1.0000
  Zn  Zn1       1.0  0.05673  0.84749  0.12354  1.0000
  Zn  Zn2       1.0  0.55673  0.34749  0.62354  1.0000
  Zn  Zn3       1.0  0.05675  0.15223  0.12354  1.0000
  Zn  Zn4       1.0  0.55675  0.65223  0.62354  1.0000
  O   O15       1.0  0.04975  0.88423  0.25374  1.0000
  O   O16       1.0  0.54975  0.38422  0.75374  1.0000
  C   C1        1.0  0.89321  0.99988  0.12990  1.0000
  C   C2        1.0  0.39321  0.49988  0.62989  1.0000
  C   C3        1.0  0.79392  0.99990  0.12802  1.0000
  C   C4        1.0  0.29392  0.49990  0.62802  1.0000
  N   N1        1.0  0.05672  0.63952  0.12354  1.0000
  N   N2        1.0  0.55672  0.13952  0.62354  1.0000
  C   C5        1.0  0.73669  0.99990  0.20861  1.0000
  C   C6        1.0  0.23669  0.49990  0.70861  1.0000
  C   C7        1.0  0.64339  0.99988  0.20685  1.0000
  C   C8        1.0  0.14339  0.49988  0.70685  1.0000
  C   C9        1.0  0.60732  0.99987  0.12450  1.0000
  C   C10       1.0  0.10732  0.49987  0.62450  1.0000
  C   C11       1.0  0.66455  0.99986  0.04390  1.0000
  C   C12       1.0  0.16455  0.49986  0.54390  1.0000
  C   C13       1.0  0.75785  0.99987  0.04567  1.0000
  C   C14       1.0  0.25785  0.49987  0.54567  1.0000
  C   C15       1.0  0.47009  0.99984  0.04023  1.0000
  C   C16       1.0  0.97009  0.49984  0.54023  1.0000
  C   C17       1.0  0.37679  0.99983  0.03847  1.0000
  C   C18       1.0  0.87679  0.49983  0.53847  1.0000
  C   C19       1.0  0.35563  0.99985  0.20142  1.0000
  C   C20       1.0  0.85563  0.49985  0.70142  1.0000
  C   C21       1.0  0.44893  0.99986  0.20318  1.0000
  C   C22       1.0  0.94893  0.49986  0.70318  1.0000
  C   C23       1.0  0.50616  0.99986  0.12258  1.0000
  C   C24       1.0  0.00616  0.49986  0.62258  1.0000
  C   C25       1.0  0.98311  0.41916  0.19668  1.0000
  C   C26       1.0  0.48311  0.91916  0.69668  1.0000
  C   C27       1.0  0.98327  0.58033  0.19695  1.0000
  C   C28       1.0  0.48327  0.08033  0.69695  1.0000
  C   C29       1.0  0.15007  0.58106  0.14403  1.0000
  C   C30       1.0  0.65007  0.08106  0.64403  1.0000
  C   C31       1.0  0.14967  0.41984  0.14455  1.0000
  C   C32       1.0  0.64967  0.91984  0.64455  1.0000
  C   C33       1.0  0.03790  0.41960  0.02967  1.0000
  C   C34       1.0  0.53790  0.91960  0.52967  1.0000
  C   C35       1.0  0.03575  0.58083  0.03030  1.0000
  C   C36       1.0  0.53575  0.08083  0.53030  1.0000
  C   C37       1.0  0.22026  0.99984  0.11719  1.0000
  C   C38       1.0  0.72026  0.49984  0.61718  1.0000
  C   C39       1.0  0.31956  0.99983  0.11906  1.0000
  C   C40       1.0  0.81956  0.49983  0.61906  1.0000
  C   C41       1.0  0.06309  0.99985  0.96001  1.0000
  C   C42       1.0  0.56309  0.49985  0.46002  1.0000
  C   C43       1.0  0.06122  0.99985  0.86072  1.0000
  C   C44       1.0  0.56122  0.49985  0.36072  1.0000
  N   N3        1.0  0.05677  0.36020  0.12353  1.0000
  N   N4        1.0  0.55677  0.86020  0.62353  1.0000
  C   C45       1.0  0.14181  0.99984  0.80349  1.0000
  C   C46       1.0  0.64181  0.49984  0.30349  1.0000
  C   C47       1.0  0.14005  0.99985  0.71019  1.0000
  C   C48       1.0  0.64005  0.49985  0.21019  1.0000
  C   C49       1.0  0.05770  0.99987  0.67412  1.0000
  C   C50       1.0  0.55770  0.49987  0.17412  1.0000
  C   C51       1.0  0.97710  0.99989  0.73135  1.0000
  C   C52       1.0  0.47710  0.49989  0.23135  1.0000
  C   C53       1.0  0.97887  0.99988  0.82465  1.0000
  C   C54       1.0  0.47886  0.49988  0.32465  1.0000
  C   C55       1.0  0.97343  0.99989  0.53689  1.0000
  C   C56       1.0  0.47343  0.49989  0.03689  1.0000
  C   C57       1.0  0.97166  0.99989  0.44359  1.0000
  C   C58       1.0  0.47167  0.49989  0.94359  1.0000
  C   C59       1.0  0.13461  0.99986  0.42243  1.0000
  C   C60       1.0  0.63461  0.49986  0.92243  1.0000
  C   C61       1.0  0.13638  0.99986  0.51573  1.0000
  C   C62       1.0  0.63638  0.49986  0.01573  1.0000
  C   C63       1.0  0.05578  0.99987  0.57296  1.0000
  C   C64       1.0  0.55578  0.49987  0.07296  1.0000
  C   C65       1.0  0.05038  0.99987  0.28707  1.0000
  C   C66       1.0  0.55038  0.49987  0.78707  1.0000
  C   C67       1.0  0.05225  0.99988  0.38636  1.0000
  C   C68       1.0  0.55225  0.49988  0.88636  1.0000
  H   H1        1.0  0.76605  0.99992  0.27568  1.0000
  H   H2        1.0  0.26605  0.49992  0.77568  1.0000
  Cl  Cl1       1.0  0.24137  0.99983  0.63826  1.0000
  Cl  Cl2       1.0  0.74137  0.49983  0.13826  1.0000
  Cl  Cl3       1.0  0.57146  0.99990  0.30817  1.0000
  Cl  Cl4       1.0  0.07146  0.49990  0.80817  1.0000
  H   H3        1.0  0.91351  0.38036  0.18466  1.0000
  H   H4        1.0  0.41351  0.88036  0.68466  1.0000
  H   H5        1.0  0.91324  0.99989  0.87124  1.0000
  H   H6        1.0  0.41324  0.49989  0.37124  1.0000
  H   H7        1.0  0.09161  0.38147  0.97523  1.0000
  H   H8        1.0  0.59161  0.88147  0.47523  1.0000
  Cl  Cl5       1.0  0.23991  0.99984  0.56108  1.0000
  Cl  Cl6       1.0  0.73991  0.49984  0.06108  1.0000
  H   H9        1.0  0.08590  0.62111  0.97330  1.0000
  H   H10       1.0  0.58590  0.12111  0.47330  1.0000
  H   H11       1.0  0.91388  0.61985  0.18473  1.0000
  H   H12       1.0  0.41388  0.11985  0.68473  1.0000
  Cl  Cl7       1.0  0.87357  0.99992  0.68600  1.0000
  Cl  Cl8       1.0  0.37357  0.49992  0.18601  1.0000
  Cl  Cl9       1.0  0.23671  0.64024  0.06396  1.0000
  Cl  Cl10      1.0  0.73671  0.14024  0.56396  1.0000
  Cl  Cl11      1.0  0.49428  0.99990  0.30671  1.0000
  Cl  Cl12      1.0  0.99428  0.49990  0.80671  1.0000
  H   H13       1.0  0.30903  0.99985  0.26704  1.0000
  H   H14       1.0  0.80903  0.49985  0.76704  1.0000
  Cl  Cl13      1.0  0.82979  0.99986  0.94435  1.0000
  Cl  Cl14      1.0  0.32979  0.49986  0.44435  1.0000
  Cl  Cl15      1.0  0.93506  0.35677  0.99931  1.0000
  Cl  Cl16      1.0  0.43506  0.85677  0.49931  1.0000
  H   H15       1.0  0.99501  0.37867  0.26594  1.0000
  H   H16       1.0  0.49501  0.87867  0.76594  1.0000
  H   H17       1.0  0.16707  0.62145  0.21170  1.0000
  H   H18       1.0  0.66707  0.12145  0.71170  1.0000
  Cl  Cl17      1.0  0.24535  0.99980  0.84883  1.0000
  Cl  Cl18      1.0  0.74535  0.49980  0.34883  1.0000
  Cl  Cl19      1.0  0.00185  0.63991  0.30450  1.0000
  Cl  Cl20      1.0  0.50185  0.13991  0.80450  1.0000
  Cl  Cl21      1.0  0.87211  0.99991  0.60883  1.0000
  Cl  Cl22      1.0  0.37211  0.49991  0.10883  1.0000
  Cl  Cl23      1.0  0.23593  0.99985  0.35049  1.0000
  Cl  Cl24      1.0  0.73594  0.49985  0.85049  1.0000
  H   H19       1.0  0.16628  0.38225  0.21300  1.0000
  H   H20       1.0  0.66628  0.88225  0.71300  1.0000
  Cl  Cl25      1.0  0.33144  0.99976  0.93494  1.0000
  Cl  Cl26      1.0  0.83144  0.49976  0.43494  1.0000
  H   H21       1.0  0.51668  0.99983  0.97460  1.0000
  H   H22       1.0  0.01668  0.49983  0.47460  1.0000
  H   H23       1.0  0.20619  0.38084  0.09337  1.0000
  H   H24       1.0  0.70619  0.88084  0.59337  1.0000
  H   H25       1.0  0.63517  0.99982  0.97685  1.0000
  H   H26       1.0  0.13517  0.49982  0.47685  1.0000
  Cl  Cl27      1.0  0.92972  0.63982  0.00630  1.0000
  Cl  Cl28      1.0  0.42972  0.13982  0.50630  1.0000
  H   H27       1.0  0.90461  0.99989  0.41422  1.0000
  H   H28       1.0  0.40461  0.49989  0.91422  1.0000
