data_image0
_chemical_formula_structural       O7Cu2OC8ONCOC10NC11O2C14N2C2HCNH2CNH3CNCNCNH2CNCNH
_chemical_formula_sum              "O12 Cu2 C53 N11 H9"
_cell_length_a       11.7922
_cell_length_b       27.732
_cell_length_c       10.2684
_cell_angle_alpha    89.9898
_cell_angle_beta     89.9996
_cell_angle_gamma    83.418

_space_group_name_H-M_alt    "P 1"
_space_group_IT_number       1

loop_
  _space_group_symop_operation_xyz
  'x, y, z'

loop_
  _atom_site_type_symbol
  _atom_site_label
  _atom_site_symmetry_multiplicity
  _atom_site_fract_x
  _atom_site_fract_y
  _atom_site_fract_z
  _atom_site_occupancy
  O   O1        1.0  0.50479  0.06625  0.89181  1.0000
  O   O2        1.0  0.17423  0.07308  0.89178  1.0000
  O   O3        1.0  0.34978  0.99933  0.89182  1.0000
  O   O4        1.0  0.32924  0.14000  0.89177  1.0000
  O   O5        1.0  0.34976  0.99932  0.10842  1.0000
  O   O6        1.0  0.17422  0.07307  0.10838  1.0000
  O   O7        1.0  0.50477  0.06624  0.10841  1.0000
  Cu  Cu1       1.0  0.33949  0.06966  0.12817  1.0000
  Cu  Cu2       1.0  0.33951  0.06966  0.87202  1.0000
  O   O8        1.0  0.32923  0.14000  0.10837  1.0000
  C   C1        1.0  0.13194  0.07265  0.00007  1.0000
  C   C2        1.0  0.00597  0.07136  0.00006  1.0000
  C   C3        1.0  0.34934  0.98131  0.00012  1.0000
  C   C4        1.0  0.34804  0.92765  0.00014  1.0000
  C   C5        1.0  0.77534  0.06900  0.00010  1.0000
  C   C6        1.0  0.90368  0.07031  0.00008  1.0000
  C   C7        1.0  0.44361  0.58939  0.00008  1.0000
  C   C8        1.0  0.43879  0.38770  0.00006  1.0000
  O   O9        1.0  0.52618  0.35696  0.00001  1.0000
  N   N1        1.0  0.33470  0.36798  0.00005  1.0000
  C   C9        1.0  0.23180  0.39867  0.00004  1.0000
  O   O10       1.0  0.14316  0.37727  0.00002  1.0000
  C   C10       1.0  0.23662  0.60036  0.00005  1.0000
  C   C11       1.0  0.34072  0.62009  0.00007  1.0000
  C   C12       1.0  0.54769  0.60912  0.00010  1.0000
  C   C13       1.0  0.54890  0.65953  0.00011  1.0000
  C   C14       1.0  0.44601  0.69023  0.00010  1.0000
  C   C15       1.0  0.34192  0.67050  0.00008  1.0000
  C   C16       1.0  0.13373  0.63106  0.00002  1.0000
  C   C17       1.0  0.13494  0.68148  0.00002  1.0000
  C   C18       1.0  0.23904  0.70121  0.00005  1.0000
  C   C19       1.0  0.24024  0.75162  0.00008  1.0000
  N   N2        1.0  0.34433  0.77134  0.00009  1.0000
  C   C20       1.0  0.44721  0.74065  0.00010  1.0000
  C   C21       1.0  0.22928  0.29278  0.00003  1.0000
  C   C22       1.0  0.22808  0.24236  0.00003  1.0000
  C   C23       1.0  0.43507  0.23140  0.00005  1.0000
  C   C24       1.0  0.43627  0.28182  0.00006  1.0000
  C   C25       1.0  0.33337  0.31251  0.00004  1.0000
  C   C26       1.0  0.44973  0.84653  0.00013  1.0000
  C   C27       1.0  0.45093  0.89696  0.00014  1.0000
  C   C28       1.0  0.24394  0.90792  0.00012  1.0000
  C   C29       1.0  0.24275  0.85750  0.00011  1.0000
  C   C30       1.0  0.34565  0.82681  0.00011  1.0000
  O   O11       1.0  0.15290  0.78239  0.00012  1.0000
  O   O12       1.0  0.53585  0.76207  0.00009  1.0000
  C   C31       1.0  0.44240  0.53897  0.00007  1.0000
  C   C32       1.0  0.33831  0.51925  0.00005  1.0000
  C   C33       1.0  0.23543  0.54994  0.00004  1.0000
  C   C34       1.0  0.33711  0.46882  0.00005  1.0000
  C   C35       1.0  0.44000  0.43813  0.00005  1.0000
  C   C36       1.0  0.54409  0.45786  0.00006  1.0000
  C   C37       1.0  0.54529  0.50828  0.00007  1.0000
  C   C38       1.0  0.13133  0.53021  0.00003  1.0000
  C   C39       1.0  0.13014  0.47979  0.00002  1.0000
  C   C40       1.0  0.23303  0.44910  0.00003  1.0000
  C   C41       1.0  0.54706  0.06668  0.00011  1.0000
  C   C42       1.0  0.67303  0.06796  0.00011  1.0000
  C   C43       1.0  0.32967  0.15801  0.00006  1.0000
  C   C44       1.0  0.33096  0.21167  0.00004  1.0000
  N   N3        1.0  0.33949  0.06966  0.30834  1.0000
  N   N4        1.0  0.33953  0.06966  0.69185  1.0000
  C   C45       1.0  0.33951  0.06966  0.57401  1.0000
  C   C46       1.0  0.33949  0.06966  0.42617  1.0000
  H   H1        1.0  0.53570  0.91302  0.00016  1.0000
  C   C47       1.0  0.54824  0.19762  0.00005  1.0000
  N   N5        1.0  0.63348  0.17218  0.00004  1.0000
  H   H2        1.0  0.04896  0.61501  1.00000  1.0000
  H   H3        1.0  0.63148  0.58413  0.00010  1.0000
  C   C48       1.0  0.66342  0.68122  0.00012  1.0000
  N   N6        1.0  0.74968  0.69756  0.00012  1.0000
  H   H4        1.0  0.14331  0.22631  0.00004  1.0000
  H   H5        1.0  0.63006  0.52433  0.00009  1.0000
  H   H6        1.0  0.14549  0.31777  0.00002  1.0000
  C   C49       1.0  0.02174  0.71524  0.00001  1.0000
  N   N7        1.0  0.93649  0.74067  1.00000  1.0000
  C   C50       1.0  0.12823  0.83580  0.00009  1.0000
  N   N8        1.0  0.04198  0.81946  0.00007  1.0000
  C   C51       1.0  0.56293  0.81278  0.00014  1.0000
  N   N9        1.0  0.64820  0.78736  0.00016  1.0000
  H   H7        1.0  0.62786  0.43286  0.00008  1.0000
  H   H8        1.0  0.04755  0.55520  0.00002  1.0000
  C   C52       1.0  0.55078  0.30351  0.00008  1.0000
  N   N10       1.0  0.63704  0.31985  0.00008  1.0000
  C   C53       1.0  0.13077  0.94169  0.00010  1.0000
  N   N11       1.0  0.04553  0.96713  0.00007  1.0000
  H   H9        1.0  0.04536  0.46374  0.00001  1.0000
