data_image0
_chemical_formula_structural       Zn4O13C18
_chemical_formula_sum              "Zn4 O13 C18"
_cell_length_a       13.8974
_cell_length_b       13.8974
_cell_length_c       13.8974
_cell_angle_alpha    90.0296
_cell_angle_beta     90.0213
_cell_angle_gamma    90.0185

_space_group_name_H-M_alt    "P 1"
_space_group_IT_number       1

loop_
  _space_group_symop_operation_xyz
  'x, y, z'

loop_
  _atom_site_type_symbol
  _atom_site_label
  _atom_site_symmetry_multiplicity
  _atom_site_fract_x
  _atom_site_fract_y
  _atom_site_fract_z
  _atom_site_occupancy
  Zn  Zn1       1.0  0.47468  0.61603  0.54545  1.0000
  Zn  Zn2       1.0  0.47458  0.45471  0.38415  1.0000
  Zn  Zn3       1.0  0.31338  0.61599  0.38416  1.0000
  Zn  Zn4       1.0  0.31335  0.45477  0.54540  1.0000
  O   O1        1.0  0.39400  0.53537  0.46479  1.0000
  O   O2        1.0  0.60965  0.59462  0.52407  1.0000
  O   O3        1.0  0.45317  0.47606  0.24917  1.0000
  O   O4        1.0  0.33483  0.75097  0.40558  1.0000
  O   O5        1.0  0.60958  0.47610  0.40557  1.0000
  O   O6        1.0  0.45334  0.75100  0.52408  1.0000
  O   O7        1.0  0.33473  0.59455  0.24918  1.0000
  O   O8        1.0  0.17839  0.59461  0.40553  1.0000
  O   O9        1.0  0.33479  0.47620  0.68039  1.0000
  O   O10       1.0  0.17837  0.47616  0.52399  1.0000
  O   O11       1.0  0.45331  0.59468  0.68042  1.0000
  O   O12       1.0  0.45314  0.31974  0.40551  1.0000
  O   O13       1.0  0.33469  0.31978  0.52398  1.0000
  C   C1        1.0  0.14338  0.53539  0.46476  1.0000
  C   C2        1.0  0.03617  0.53537  0.46476  1.0000
  C   C3        1.0  0.94910  0.53537  0.46478  1.0000
  C   C4        1.0  0.83987  0.53536  0.46481  1.0000
  C   C5        1.0  0.39393  0.28476  0.46476  1.0000
  C   C6        1.0  0.39399  0.17754  0.46478  1.0000
  C   C7        1.0  0.39409  0.98125  0.46484  1.0000
  C   C8        1.0  0.39403  0.09048  0.46481  1.0000
  C   C9        1.0  0.64559  0.53536  0.46482  1.0000
  C   C10       1.0  0.75281  0.53535  0.46484  1.0000
  C   C11       1.0  0.39406  0.53545  0.71638  1.0000
  C   C12       1.0  0.39408  0.53549  0.82360  1.0000
  C   C13       1.0  0.39410  0.78697  0.46484  1.0000
  C   C14       1.0  0.39414  0.89418  0.46486  1.0000
  C   C15       1.0  0.39399  0.53536  0.21418  1.0000
  C   C16       1.0  0.39416  0.53560  0.10696  1.0000
  C   C17       1.0  0.39410  0.53552  0.91067  1.0000
  C   C18       1.0  0.39413  0.53556  0.01990  1.0000
