data_image0
_chemical_formula_structural       O7Cu2OC18N2C8HFH2F3H2F2H
_chemical_formula_sum              "O8 Cu2 C26 N2 H6 F6"
_cell_length_a       11.7922
_cell_length_b       10.6546
_cell_length_c       9.13031
_cell_angle_alpha    89.9995
_cell_angle_beta     89.9963
_cell_angle_gamma    95.659

_space_group_name_H-M_alt    "P 1"
_space_group_IT_number       1

loop_
  _space_group_symop_operation_xyz
  'x, y, z'

loop_
  _atom_site_type_symbol
  _atom_site_label
  _atom_site_symmetry_multiplicity
  _atom_site_fract_x
  _atom_site_fract_y
  _atom_site_fract_z
  _atom_site_occupancy
  O   O1        1.0  0.84053  0.66738  0.87821  1.0000
  O   O2        1.0  0.82536  0.30186  0.87821  1.0000
  O   O3        1.0  0.99810  0.49349  0.87820  1.0000
  O   O4        1.0  0.66780  0.47575  0.87822  1.0000
  O   O5        1.0  0.99809  0.49348  0.12180  1.0000
  O   O6        1.0  0.82535  0.30185  0.12181  1.0000
  O   O7        1.0  0.84053  0.66737  0.12181  1.0000
  Cu  Cu1       1.0  0.83294  0.48461  0.14405  1.0000
  Cu  Cu2       1.0  0.83295  0.48462  0.85597  1.0000
  O   O8        1.0  0.66779  0.47574  0.12182  1.0000
  C   C1        1.0  0.82647  0.25506  0.00001  1.0000
  C   C2        1.0  0.82981  0.11563  0.00001  1.0000
  C   C3        1.0  0.93466  0.06438  0.00001  1.0000
  C   C4        1.0  0.93779  0.93337  1.00000  1.0000
  C   C5        1.0  0.73122  0.90485  0.99999  1.0000
  C   C6        1.0  0.72809  0.03587  1.00000  1.0000
  C   C7        1.0  0.03638  0.14415  0.00002  1.0000
  C   C8        1.0  0.14123  0.09290  0.00002  1.0000
  C   C9        1.0  0.14437  0.96189  0.00001  1.0000
  C   C10       1.0  0.04264  0.88212  1.00000  1.0000
  C   C11       1.0  0.62550  0.47686  0.00002  1.0000
  C   C12       1.0  0.49948  0.48019  0.00003  1.0000
  C   C13       1.0  0.26875  0.48633  0.99999  1.0000
  C   C14       1.0  0.39715  0.48292  0.00001  1.0000
  C   C15       1.0  0.04039  0.49237  1.00000  1.0000
  C   C16       1.0  0.16641  0.48903  0.99998  1.0000
  C   C17       1.0  0.83942  0.71417  0.00001  1.0000
  C   C18       1.0  0.83608  0.85360  1.00000  1.0000
  N   N1        1.0  0.83294  0.48462  0.34667  1.0000
  N   N2        1.0  0.83296  0.48462  0.65335  1.0000
  C   C19       1.0  0.90940  0.56950  0.42332  1.0000
  C   C20       1.0  0.90941  0.56949  0.57666  1.0000
  C   C21       1.0  0.75649  0.39973  0.57669  1.0000
  C   C22       1.0  0.75649  0.39973  0.42335  1.0000
  C   C23       1.0  0.98585  0.65438  0.34664  1.0000
  C   C24       1.0  0.06232  0.73927  0.42329  1.0000
  C   C25       1.0  0.06233  0.73927  0.57663  1.0000
  C   C26       1.0  0.98588  0.65438  0.65332  1.0000
  H   H1        1.0  0.03384  0.25083  0.00003  1.0000
  F   F1        1.0  0.14369  0.82960  0.34168  1.0000
  H   H2        1.0  0.04520  0.77544  0.99998  1.0000
  H   H3        1.0  0.69422  0.33062  0.36095  1.0000
  F   F2        1.0  0.25596  0.90736  0.99999  1.0000
  F   F3        1.0  0.14372  0.82959  0.65820  1.0000
  F   F4        1.0  0.98591  0.65437  0.81651  1.0000
  H   H4        1.0  0.64272  0.07759  0.00001  1.0000
  H   H5        1.0  0.22405  0.15786  0.00002  1.0000
  F   F5        1.0  0.62297  0.81995  0.99999  1.0000
  F   F6        1.0  0.98584  0.65440  0.18345  1.0000
  H   H6        1.0  0.69425  0.33062  0.63914  1.0000
