data_image0
_chemical_formula_structural       ZrO12Zr5O20C52N2C44HCNCNH2CNCNHCNCNHCNH4CNHCNCNH2CNH3CNH2CNH3CNCNCNCNCNH3CNH2CNCNHCNHCNCNCNHCNH3CN
_chemical_formula_sum              "Zr6 O32 C123 N29 H31"
_cell_length_a       19.3776
_cell_length_b       19.3774
_cell_length_c       20.8756
_cell_angle_alpha    45.9227
_cell_angle_beta     75.5295
_cell_angle_gamma    62.433

_space_group_name_H-M_alt    "P 1"
_space_group_IT_number       1

loop_
  _space_group_symop_operation_xyz
  'x, y, z'

loop_
  _atom_site_type_symbol
  _atom_site_label
  _atom_site_symmetry_multiplicity
  _atom_site_fract_x
  _atom_site_fract_y
  _atom_site_fract_z
  _atom_site_occupancy
  Zr  Zr1       1.0  0.81831  0.81473  0.57598  1.0000
  O   O1        1.0  0.72878  0.97255  0.46432  1.0000
  O   O2        1.0  0.82748  0.66142  0.63253  1.0000
  O   O3        1.0  0.85020  0.82416  0.46034  1.0000
  O   O4        1.0  0.70891  0.80080  0.74694  1.0000
  O   O5        1.0  0.96677  0.82648  0.43181  1.0000
  O   O6        1.0  0.70606  0.80980  0.63651  1.0000
  O   O7        1.0  0.92611  0.53536  0.73982  1.0000
  O   O8        1.0  0.74957  0.09191  0.43893  1.0000
  O   O9        1.0  0.94045  0.72454  0.60838  1.0000
  O   O10       1.0  0.85560  0.71609  0.71209  1.0000
  O   O11       1.0  0.88235  0.90770  0.50936  1.0000
  O   O12       1.0  0.79750  0.89925  0.61307  1.0000
  Zr  Zr2       1.0  0.00876  0.80407  0.70659  1.0000
  Zr  Zr3       1.0  0.00421  0.81843  0.53047  1.0000
  Zr  Zr4       1.0  0.82286  0.80037  0.75210  1.0000
  Zr  Zr5       1.0  0.85145  0.00511  0.53547  1.0000
  Zr  Zr6       1.0  0.97562  0.61369  0.74709  1.0000
  O   O13       1.0  0.99959  0.95739  0.65003  1.0000
  O   O14       1.0  0.99311  0.97781  0.39961  1.0000
  O   O15       1.0  0.73526  0.95212  0.71474  1.0000
  O   O16       1.0  0.09829  0.64626  0.81824  1.0000
  O   O17       1.0  0.09181  0.66668  0.56782  1.0000
  O   O18       1.0  0.83396  0.64100  0.88295  1.0000
  O   O19       1.0  0.11816  0.81801  0.53563  1.0000
  O   O20       1.0  0.97687  0.79464  0.82222  1.0000
  O   O21       1.0  0.86030  0.79232  0.85076  1.0000
  O   O22       1.0  0.12101  0.80900  0.64606  1.0000
  O   O23       1.0  0.89734  0.09486  0.40275  1.0000
  O   O24       1.0  0.92974  0.52395  0.87981  1.0000
  O   O25       1.0  0.07750  0.52689  0.84364  1.0000
  O   O26       1.0  0.07388  0.53831  0.70365  1.0000
  O   O27       1.0  0.75319  0.08050  0.57892  1.0000
  O   O28       1.0  0.90096  0.08344  0.54274  1.0000
  O   O29       1.0  0.94472  0.71110  0.77321  1.0000
  O   O30       1.0  0.02957  0.71956  0.66950  1.0000
  O   O31       1.0  0.97148  0.90271  0.57048  1.0000
  O   O32       1.0  0.88662  0.89426  0.67418  1.0000
  C   C1        1.0  0.87207  0.57127  0.69195  1.0000
  C   C2        1.0  0.85800  0.49045  0.70914  1.0000
  C   C3        1.0  0.03320  0.24668  0.49504  1.0000
  C   C4        1.0  0.01997  0.17074  0.51122  1.0000
  C   C5        1.0  0.93138  0.16192  0.61948  1.0000
  C   C6        1.0  0.94461  0.23787  0.60331  1.0000
  C   C7        1.0  0.99551  0.28025  0.54109  1.0000
  C   C8        1.0  0.90692  0.27144  0.64936  1.0000
  C   C9        1.0  0.92015  0.34738  0.63320  1.0000
  C   C10       1.0  0.97106  0.38975  0.57099  1.0000
  C   C11       1.0  0.00874  0.35619  0.52493  1.0000
  C   C12       1.0  0.85601  0.22905  0.71158  1.0000
  C   C13       1.0  0.81833  0.26262  0.75764  1.0000
  C   C14       1.0  0.83155  0.33856  0.74147  1.0000
  C   C15       1.0  0.88246  0.38094  0.67926  1.0000
  C   C16       1.0  0.79387  0.37213  0.78752  1.0000
  C   C17       1.0  0.80709  0.44807  0.77136  1.0000
  C   C18       1.0  0.89569  0.45688  0.66309  1.0000
  C   C19       1.0  0.68100  0.80477  0.69821  1.0000
  C   C20       1.0  0.60208  0.80320  0.71753  1.0000
  C   C21       1.0  0.33464  0.82280  0.47695  1.0000
  C   C22       1.0  0.26048  0.82131  0.49513  1.0000
  C   C23       1.0  0.26365  0.81139  0.61679  1.0000
  C   C24       1.0  0.33780  0.81288  0.59862  1.0000
  C   C25       1.0  0.37329  0.81858  0.52869  1.0000
  C   C26       1.0  0.37646  0.80866  0.65037  1.0000
  C   C27       1.0  0.45061  0.81015  0.63220  1.0000
  C   C28       1.0  0.48610  0.81585  0.56228  1.0000
  C   C29       1.0  0.44744  0.82007  0.51053  1.0000
  C   C30       1.0  0.34097  0.80295  0.72029  1.0000
  C   C31       1.0  0.37963  0.79874  0.77204  1.0000
  C   C32       1.0  0.45378  0.80023  0.75387  1.0000
  C   C33       1.0  0.48927  0.80593  0.68395  1.0000
  C   C34       1.0  0.49244  0.79601  0.80562  1.0000
  C   C35       1.0  0.56659  0.79750  0.78745  1.0000
  C   C36       1.0  0.56342  0.80742  0.66578  1.0000
  C   C37       1.0  0.14607  0.81403  0.58436  1.0000
  C   C38       1.0  0.22499  0.81560  0.56504  1.0000
  C   C39       1.0  0.90784  0.82737  0.42098  1.0000
  C   C40       1.0  0.90590  0.83347  0.34622  1.0000
  C   C41       1.0  0.95500  0.04754  0.59062  1.0000
  C   C42       1.0  0.96907  0.12836  0.57342  1.0000
  C   C43       1.0  0.93532  0.74073  0.36277  1.0000
  C   C44       1.0  0.93350  0.74646  0.29252  1.0000
  C   C45       1.0  0.90226  0.84494  0.20571  1.0000
  C   C46       1.0  0.87284  0.93768  0.18915  1.0000
  C   C47       1.0  0.87465  0.93195  0.25940  1.0000
  C   C48       1.0  0.89356  0.87235  0.99005  1.0000
  C   C49       1.0  0.89175  0.87808  0.91979  1.0000
  C   C50       1.0  0.95241  0.68686  0.02317  1.0000
  C   C51       1.0  0.95423  0.68113  0.09342  1.0000
  C   C52       1.0  0.92480  0.77387  0.07686  1.0000
  N   N1        1.0  0.90040  0.85080  0.13389  1.0000
  N   N2        1.0  0.92666  0.76801  0.14867  1.0000
  C   C53       1.0  0.91923  0.79144  0.86158  1.0000
  C   C54       1.0  0.92117  0.78534  0.93635  1.0000
  C   C55       1.0  0.10461  0.57590  0.63502  1.0000
  C   C56       1.0  0.16946  0.49665  0.63290  1.0000
  C   C57       1.0  0.87777  0.55330  0.91225  1.0000
  C   C58       1.0  0.86564  0.46638  0.00421  1.0000
  C   C59       1.0  0.11031  0.55793  0.85532  1.0000
  C   C60       1.0  0.17709  0.47258  0.92796  1.0000
  C   C61       1.0  0.71676  0.06087  0.42724  1.0000
  C   C62       1.0  0.64998  0.14622  0.35460  1.0000
  C   C63       1.0  0.72246  0.04291  0.64754  1.0000
  C   C64       1.0  0.65761  0.12216  0.64967  1.0000
  C   C65       1.0  0.94930  0.06550  0.37032  1.0000
  C   C66       1.0  0.96144  0.15242  0.27836  1.0000
  C   C67       1.0  0.15339  0.46203  0.59999  1.0000
  C   C68       1.0  0.21432  0.38758  0.59797  1.0000
  C   C69       1.0  0.29131  0.34774  0.62888  1.0000
  C   C70       1.0  0.30738  0.38236  0.66178  1.0000
  C   C71       1.0  0.24645  0.45681  0.66379  1.0000
  C   C72       1.0  0.90646  0.42296  0.07931  1.0000
  C   C73       1.0  0.89505  0.34130  0.16572  1.0000
  C   C74       1.0  0.84283  0.30306  0.17704  1.0000
  C   C75       1.0  0.80200  0.34649  0.10193  1.0000
  C   C76       1.0  0.81340  0.42815  0.01552  1.0000
  C   C77       1.0  0.25276  0.43692  0.90794  1.0000
  C   C78       1.0  0.31552  0.35673  0.97619  1.0000
  C   C79       1.0  0.30261  0.31222  0.06445  1.0000
  C   C80       1.0  0.22693  0.34789  0.08448  1.0000
  C   C81       1.0  0.16418  0.42808  0.01623  1.0000
  C   C82       1.0  0.57432  0.18190  0.37462  1.0000
  C   C83       1.0  0.51156  0.26210  0.30637  1.0000
  C   C84       1.0  0.52447  0.30662  0.21810  1.0000
  C   C85       1.0  0.60014  0.27094  0.19808  1.0000
  C   C86       1.0  0.66290  0.19075  0.26633  1.0000
  C   C87       1.0  0.67368  0.15678  0.68257  1.0000
  C   C88       1.0  0.61276  0.23125  0.68456  1.0000
  C   C89       1.0  0.53577  0.27110  0.65365  1.0000
  C   C90       1.0  0.51970  0.23648  0.62075  1.0000
  C   C91       1.0  0.58062  0.16201  0.61876  1.0000
  C   C92       1.0  0.01366  0.19064  0.26707  1.0000
  C   C93       1.0  0.02508  0.27230  0.18067  1.0000
  C   C94       1.0  0.98427  0.31574  0.10555  1.0000
  C   C95       1.0  0.93204  0.27752  0.11684  1.0000
  C   C96       1.0  0.92063  0.19586  0.20324  1.0000
  H   H1        1.0  0.05019  0.39070  0.47426  1.0000
  C   C97       1.0  0.56293  0.12392  0.58258  1.0000
  N   N3        1.0  0.54960  0.09524  0.55533  1.0000
  C   C98       1.0  0.56767  0.81748  0.54229  1.0000
  N   N4        1.0  0.62911  0.81872  0.52724  1.0000
  H   H2        1.0  0.77688  0.22810  0.80830  1.0000
  H   H3        1.0  0.96076  0.66054  0.43346  1.0000
  C   C99       1.0  0.61433  0.31992  0.10098  1.0000
  N   N5        1.0  0.62501  0.35681  0.02785  1.0000
  C   C100      1.0  0.37368  0.82908  0.40002  1.0000
  N   N6        1.0  0.40308  0.83381  0.34209  1.0000
  H   H4        1.0  0.47337  0.37193  0.16254  1.0000
  C   C101      1.0  0.06143  0.13381  0.46056  1.0000
  N   N7        1.0  0.09266  0.10600  0.42240  1.0000
  C   C102      1.0  0.86316  0.15385  0.21564  1.0000
  N   N8        1.0  0.81987  0.12221  0.22498  1.0000
  H   H5        1.0  0.47633  0.82472  0.45358  1.0000
  C   C103      1.0  0.73787  0.32551  0.85596  1.0000
  N   N9        1.0  0.69569  0.29039  0.90751  1.0000
  H   H6        1.0  0.72450  0.16170  0.25002  1.0000
  H   H7        1.0  0.92830  0.30595  0.22686  1.0000
  H   H8        1.0  0.88993  0.12741  0.67014  1.0000
  H   H9        1.0  0.83355  0.23656  0.24740  1.0000
  C   C104      1.0  0.63045  0.26931  0.72076  1.0000
  N   N10       1.0  0.64377  0.29798  0.74804  1.0000
  H   H10       1.0  0.10257  0.45711  0.03255  1.0000
  C   C105      1.0  0.08254  0.31433  0.16827  1.0000
  N   N11       1.0  0.12581  0.34599  0.15893  1.0000
  C   C106      1.0  0.06871  0.50586  0.56599  1.0000
  N   N12       1.0  0.00492  0.53886  0.54037  1.0000
  H   H11       1.0  0.56379  0.14565  0.44649  1.0000
  H   H12       1.0  0.37007  0.34991  0.68694  1.0000
  C   C107      1.0  0.21796  0.82596  0.43818  1.0000
  N   N13       1.0  0.18593  0.82947  0.39529  1.0000
  H   H13       1.0  0.85070  0.00746  0.24592  1.0000
  H   H14       1.0  0.35371  0.24692  0.12001  1.0000
  H   H15       1.0  0.59807  0.79406  0.82959  1.0000
  C   C108      1.0  0.22462  0.80507  0.69373  1.0000
  N   N14       1.0  0.19522  0.80030  0.75168  1.0000
  H   H16       1.0  0.21643  0.31163  0.15635  1.0000
  H   H17       1.0  0.20122  0.35941  0.57118  1.0000
  C   C109      1.0  0.96586  0.64444  0.31075  1.0000
  N   N15       1.0  0.99023  0.56760  0.32447  1.0000
  H   H18       1.0  0.84525  0.16722  0.72474  1.0000
  H   H19       1.0  0.73637  0.12434  0.70774  1.0000
  H   H20       1.0  0.97967  0.60094  0.16410  1.0000
  C   C110      1.0  0.26414  0.49487  0.70000  1.0000
  N   N16       1.0  0.27746  0.52352  0.72728  1.0000
  C   C111      1.0  0.43500  0.28030  0.58678  1.0000
  N   N17       1.0  0.37120  0.31331  0.56120  1.0000
  C   C112      1.0  0.74456  0.30441  0.11440  1.0000
  N   N18       1.0  0.70130  0.27270  0.12379  1.0000
  C   C113      1.0  0.08920  0.29330  0.42660  1.0000
  N   N19       1.0  0.13138  0.32842  0.37505  1.0000
  C   C114      1.0  0.99684  0.40558  0.01051  1.0000
  N   N20       1.0  0.00630  0.47324  0.93893  1.0000
  H   H21       1.0  0.89881  0.31291  0.05567  1.0000
  H   H22       1.0  0.97637  0.61135  0.03665  1.0000
  H   H23       1.0  0.34091  0.28711  0.62724  1.0000
  C   C115      1.0  0.39874  0.31750  0.95415  1.0000
  N   N21       1.0  0.46143  0.28794  0.93754  1.0000
  H   H24       1.0  0.78016  0.46350  0.95438  1.0000
  H   H25       1.0  0.93714  0.49139  0.61242  1.0000
  C   C116      1.0  0.46875  0.35301  0.65586  1.0000
  N   N22       1.0  0.41828  0.41470  0.65753  1.0000
  C   C117      1.0  0.96390  0.46501  0.06688  1.0000
  N   N23       1.0  0.00717  0.49669  0.05753  1.0000
  H   H26       1.0  0.26328  0.47315  0.83608  1.0000
  C   C118      1.0  0.45341  0.78969  0.88256  1.0000
  N   N24       1.0  0.42401  0.78492  0.94052  1.0000
  H   H27       1.0  0.44995  0.29114  0.32269  1.0000
  C   C119      1.0  0.34060  0.79242  0.84898  1.0000
  N   N25       1.0  0.31120  0.78766  0.90693  1.0000
  C   C120      1.0  0.76563  0.48501  0.82201  1.0000
  N   N26       1.0  0.73439  0.51283  0.86016  1.0000
  C   C121      1.0  0.85740  0.98641  0.82429  1.0000
  N   N27       1.0  0.83153  0.06801  0.75235  1.0000
  H   H28       1.0  0.04690  0.15527  0.32822  1.0000
  C   C122      1.0  0.83847  0.04601  0.09365  1.0000
  N   N28       1.0  0.81259  0.12760  0.02172  1.0000
  H   H29       1.0  0.98182  0.45159  0.55783  1.0000
  H   H30       1.0  0.59232  0.81207  0.60884  1.0000
  H   H31       1.0  0.28060  0.80174  0.73509  1.0000
  C   C123      1.0  0.86120  0.97437  0.97182  1.0000
  N   N29       1.0  0.83683  0.05122  0.95808  1.0000
