data_image0
_chemical_formula_structural       Zn12O39C21N6C3N6C39N6C3N6C72H6F3H6F3H6F6H6F12H3F6H9
_chemical_formula_sum              "Zn12 O39 C138 N24 H36 F30"
_cell_length_a       21.2954
_cell_length_b       21.2954
_cell_length_c       18.0506
_cell_angle_alpha    89.9634
_cell_angle_beta     89.9818
_cell_angle_gamma    90.0453

_space_group_name_H-M_alt    "P 1"
_space_group_IT_number       1

loop_
  _space_group_symop_operation_xyz
  'x, y, z'

loop_
  _atom_site_type_symbol
  _atom_site_label
  _atom_site_symmetry_multiplicity
  _atom_site_fract_x
  _atom_site_fract_y
  _atom_site_fract_z
  _atom_site_occupancy
  Zn  Zn1       1.0  0.96232  0.74966  0.58011  1.0000
  Zn  Zn2       1.0  0.29565  0.08299  0.91344  1.0000
  Zn  Zn3       1.0  0.62898  0.41633  0.24678  1.0000
  Zn  Zn4       1.0  0.96223  0.64438  0.70431  1.0000
  Zn  Zn5       1.0  0.29556  0.97772  0.03764  1.0000
  Zn  Zn6       1.0  0.62890  0.31105  0.37097  1.0000
  Zn  Zn7       1.0  0.85705  0.74961  0.70429  1.0000
  Zn  Zn8       1.0  0.19038  0.08294  0.03762  1.0000
  Zn  Zn9       1.0  0.52372  0.41627  0.37095  1.0000
  Zn  Zn10      1.0  0.85701  0.64440  0.58016  1.0000
  Zn  Zn11      1.0  0.19034  0.97773  0.91349  1.0000
  Zn  Zn12      1.0  0.52368  0.31106  0.24683  1.0000
  O   O1        1.0  0.90965  0.69701  0.64222  1.0000
  O   O2        1.0  0.24299  0.03034  0.97555  1.0000
  O   O3        1.0  0.57632  0.36368  0.30888  1.0000
  O   O4        1.0  0.05039  0.73571  0.59657  1.0000
  O   O5        1.0  0.38373  0.06904  0.92991  1.0000
  O   O6        1.0  0.71706  0.40238  0.26324  1.0000
  O   O7        1.0  0.94826  0.65831  0.80823  1.0000
  O   O8        1.0  0.28159  0.99164  0.14156  1.0000
  O   O9        1.0  0.61493  0.32498  0.47490  1.0000
  O   O10       1.0  0.87107  0.83770  0.68778  1.0000
  O   O11       1.0  0.20440  0.17104  0.02111  1.0000
  O   O12       1.0  0.53774  0.50437  0.35445  1.0000
  O   O13       1.0  0.05033  0.65836  0.68782  1.0000
  O   O14       1.0  0.38366  0.99170  0.02116  1.0000
  O   O15       1.0  0.71700  0.32503  0.35449  1.0000
  O   O16       1.0  0.94841  0.83774  0.59655  1.0000
  O   O17       1.0  0.28174  0.17108  0.92988  1.0000
  O   O18       1.0  0.61507  0.50441  0.26322  1.0000
  O   O19       1.0  0.87099  0.73562  0.80821  1.0000
  O   O20       1.0  0.20432  0.06895  0.14155  1.0000
  O   O21       1.0  0.53765  0.40228  0.47488  1.0000
  O   O22       1.0  0.76896  0.73563  0.68783  1.0000
  O   O23       1.0  0.10229  0.06897  0.02116  1.0000
  O   O24       1.0  0.43562  0.40230  0.35450  1.0000
  O   O25       1.0  0.87100  0.65839  0.47623  1.0000
  O   O26       1.0  0.20433  0.99172  0.80956  1.0000
  O   O27       1.0  0.53766  0.32506  0.14289  1.0000
  O   O28       1.0  0.76892  0.65834  0.59664  1.0000
  O   O29       1.0  0.10226  0.99167  0.92997  1.0000
  O   O30       1.0  0.43559  0.32500  0.26330  1.0000
  O   O31       1.0  0.94837  0.73573  0.47619  1.0000
  O   O32       1.0  0.28170  0.06906  0.80953  1.0000
  O   O33       1.0  0.61503  0.40239  0.14286  1.0000
  O   O34       1.0  0.94822  0.55629  0.68787  1.0000
  O   O35       1.0  0.28155  0.88963  0.02120  1.0000
  O   O36       1.0  0.61488  0.22296  0.35454  1.0000
  O   O37       1.0  0.87091  0.55631  0.59666  1.0000
  O   O38       1.0  0.20425  0.88964  0.92999  1.0000
  O   O39       1.0  0.53758  0.22297  0.26333  1.0000
  C   C1        1.0  0.74610  0.69698  0.64224  1.0000
  C   C2        1.0  0.07943  0.03031  0.97557  1.0000
  C   C3        1.0  0.41277  0.36365  0.30890  1.0000
  C   C4        1.0  0.67613  0.69695  0.64223  1.0000
  C   C5        1.0  0.00947  0.03029  0.97556  1.0000
  C   C6        1.0  0.34280  0.36362  0.30889  1.0000
  C   C7        1.0  0.64332  0.73716  0.59464  1.0000
  C   C8        1.0  0.97665  0.07050  0.92797  1.0000
  C   C9        1.0  0.30999  0.40383  0.26131  1.0000
  C   C10       1.0  0.57758  0.73718  0.59464  1.0000
  C   C11       1.0  0.91091  0.07051  0.92797  1.0000
  C   C12       1.0  0.24425  0.40385  0.26131  1.0000
  C   C13       1.0  0.54465  0.69698  0.64221  1.0000
  C   C14       1.0  0.87798  0.03031  0.97555  1.0000
  C   C15       1.0  0.21132  0.36364  0.30888  1.0000
  C   C16       1.0  0.57747  0.65676  0.68981  1.0000
  C   C17       1.0  0.91080  0.99010  0.02314  1.0000
  C   C18       1.0  0.24414  0.32343  0.35648  1.0000
  C   C19       1.0  0.64321  0.65675  0.68982  1.0000
  C   C20       1.0  0.97654  0.99009  0.02315  1.0000
  C   C21       1.0  0.30988  0.32342  0.35648  1.0000
  N   N1        1.0  0.44138  0.64190  0.64802  1.0000
  N   N2        1.0  0.77471  0.97523  0.98135  1.0000
  N   N3        1.0  0.10804  0.30856  0.31469  1.0000
  N   N4        1.0  0.37892  0.64191  0.64801  1.0000
  N   N5        1.0  0.71226  0.97524  0.98134  1.0000
  N   N6        1.0  0.04559  0.30858  0.31467  1.0000
  C   C22       1.0  0.34658  0.69701  0.64220  1.0000
  C   C23       1.0  0.67991  0.03034  0.97553  1.0000
  C   C24       1.0  0.01324  0.36368  0.30886  1.0000
  N   N7        1.0  0.37904  0.75209  0.63638  1.0000
  N   N8        1.0  0.71237  0.08543  0.96972  1.0000
  N   N9        1.0  0.04570  0.41876  0.30305  1.0000
  N   N10       1.0  0.44149  0.75208  0.63639  1.0000
  N   N11       1.0  0.77483  0.08542  0.96973  1.0000
  N   N12       1.0  0.10816  0.41875  0.30306  1.0000
  C   C25       1.0  0.47336  0.69698  0.64221  1.0000
  C   C26       1.0  0.80670  0.03032  0.97555  1.0000
  C   C27       1.0  0.14003  0.36365  0.30888  1.0000
  C   C28       1.0  0.24248  0.73724  0.59461  1.0000
  C   C29       1.0  0.57581  0.07057  0.92794  1.0000
  C   C30       1.0  0.90915  0.40391  0.26127  1.0000
  C   C31       1.0  0.17673  0.73726  0.59461  1.0000
  C   C32       1.0  0.51007  0.07059  0.92794  1.0000
  C   C33       1.0  0.84340  0.40392  0.26127  1.0000
  C   C34       1.0  0.17663  0.65684  0.68978  1.0000
  C   C35       1.0  0.50996  0.99017  0.02311  1.0000
  C   C36       1.0  0.84329  0.32350  0.35644  1.0000
  C   C37       1.0  0.24237  0.65682  0.68978  1.0000
  C   C38       1.0  0.57570  0.99016  0.02311  1.0000
  C   C39       1.0  0.90904  0.32349  0.35644  1.0000
  C   C40       1.0  0.27529  0.69703  0.64219  1.0000
  C   C41       1.0  0.60862  0.03036  0.97552  1.0000
  C   C42       1.0  0.94196  0.36369  0.30885  1.0000
  C   C43       1.0  0.90957  0.53346  0.64226  1.0000
  C   C44       1.0  0.24290  0.86679  0.97559  1.0000
  C   C45       1.0  0.57624  0.20013  0.30892  1.0000
  C   C46       1.0  0.90959  0.46349  0.64225  1.0000
  C   C47       1.0  0.24293  0.79682  0.97558  1.0000
  C   C48       1.0  0.57626  0.13016  0.30892  1.0000
  C   C49       1.0  0.94988  0.43064  0.68969  1.0000
  C   C50       1.0  0.28321  0.76397  0.02303  1.0000
  C   C51       1.0  0.61655  0.09731  0.35636  1.0000
  C   C52       1.0  0.94991  0.36490  0.68968  1.0000
  C   C53       1.0  0.28324  0.69823  0.02301  1.0000
  C   C54       1.0  0.61658  0.03156  0.35634  1.0000
  C   C55       1.0  0.90964  0.33201  0.64222  1.0000
  C   C56       1.0  0.24297  0.66534  0.97556  1.0000
  C   C57       1.0  0.57631  0.99868  0.30889  1.0000
  C   C58       1.0  0.86935  0.36487  0.59477  1.0000
  C   C59       1.0  0.20268  0.69820  0.92810  1.0000
  C   C60       1.0  0.53601  0.03154  0.26144  1.0000
  C   C61       1.0  0.86932  0.43061  0.59478  1.0000
  C   C62       1.0  0.20266  0.76394  0.92812  1.0000
  C   C63       1.0  0.53599  0.09728  0.26145  1.0000
  N   N13       1.0  0.85457  0.22873  0.63657  1.0000
  N   N14       1.0  0.18791  0.56206  0.96990  1.0000
  N   N15       1.0  0.52124  0.89540  0.30324  1.0000
  N   N16       1.0  0.85460  0.16628  0.63656  1.0000
  N   N17       1.0  0.18793  0.49961  0.96989  1.0000
  N   N18       1.0  0.52126  0.83295  0.30323  1.0000
  C   C64       1.0  0.90971  0.13394  0.64218  1.0000
  C   C65       1.0  0.24304  0.46727  0.97552  1.0000
  C   C66       1.0  0.57638  0.80060  0.30885  1.0000
  N   N19       1.0  0.96480  0.16640  0.64782  1.0000
  N   N20       1.0  0.29813  0.49973  0.98116  1.0000
  N   N21       1.0  0.63147  0.83307  0.31449  1.0000
  N   N22       1.0  0.96477  0.22886  0.64783  1.0000
  N   N23       1.0  0.29811  0.56219  0.98117  1.0000
  N   N24       1.0  0.63144  0.89553  0.31450  1.0000
  C   C67       1.0  0.90966  0.26072  0.64220  1.0000
  C   C68       1.0  0.24299  0.59406  0.97554  1.0000
  C   C69       1.0  0.57633  0.92739  0.30887  1.0000
  C   C70       1.0  0.95003  0.02980  0.68961  1.0000
  C   C71       1.0  0.28337  0.36313  0.02294  1.0000
  C   C72       1.0  0.61670  0.69646  0.35628  1.0000
  C   C73       1.0  0.95007  0.96405  0.68959  1.0000
  C   C74       1.0  0.28340  0.29739  0.02292  1.0000
  C   C75       1.0  0.61673  0.63072  0.35626  1.0000
  C   C76       1.0  0.86950  0.96403  0.59468  1.0000
  C   C77       1.0  0.20283  0.29736  0.92802  1.0000
  C   C78       1.0  0.53616  0.63069  0.26135  1.0000
  C   C79       1.0  0.86947  0.02977  0.59470  1.0000
  C   C80       1.0  0.20280  0.36310  0.92804  1.0000
  C   C81       1.0  0.53614  0.69644  0.26137  1.0000
  C   C82       1.0  0.90974  0.06265  0.64217  1.0000
  C   C83       1.0  0.24307  0.39598  0.97550  1.0000
  C   C84       1.0  0.57641  0.72932  0.30884  1.0000
  C   C85       1.0  0.07384  0.69704  0.64219  1.0000
  C   C86       1.0  0.40718  0.03037  0.97553  1.0000
  C   C87       1.0  0.74051  0.36371  0.30886  1.0000
  C   C88       1.0  0.14381  0.69705  0.64219  1.0000
  C   C89       1.0  0.47714  0.03039  0.97552  1.0000
  C   C90       1.0  0.81048  0.36372  0.30885  1.0000
  C   C91       1.0  0.90969  0.69707  0.44851  1.0000
  C   C92       1.0  0.24302  0.03040  0.78184  1.0000
  C   C93       1.0  0.57635  0.36373  0.11518  1.0000
  C   C94       1.0  0.90970  0.69709  0.36596  1.0000
  C   C95       1.0  0.24303  0.03042  0.69930  1.0000
  C   C96       1.0  0.57637  0.36376  0.03263  1.0000
  C   C97       1.0  0.90975  0.86120  0.64216  1.0000
  C   C98       1.0  0.24309  0.19453  0.97549  1.0000
  C   C99       1.0  0.57642  0.52787  0.30883  1.0000
  C   C100      1.0  0.90979  0.93117  0.64213  1.0000
  C   C101      1.0  0.24313  0.26450  0.97547  1.0000
  C   C102      1.0  0.57646  0.59784  0.30880  1.0000
  C   C103      1.0  0.95181  0.73919  0.11712  1.0000
  C   C104      1.0  0.28515  0.07252  0.45045  1.0000
  C   C105      1.0  0.61848  0.40586  0.78378  1.0000
  C   C106      1.0  0.96717  0.68176  0.16654  1.0000
  C   C107      1.0  0.30050  0.01509  0.49987  1.0000
  C   C108      1.0  0.63384  0.34842  0.83320  1.0000
  C   C109      1.0  0.90974  0.69713  0.06884  1.0000
  C   C110      1.0  0.24307  0.03046  0.40218  1.0000
  C   C111      1.0  0.57641  0.36380  0.73551  1.0000
  C   C112      1.0  0.89439  0.75454  0.16651  1.0000
  C   C113      1.0  0.22773  0.08788  0.49984  1.0000
  C   C114      1.0  0.56106  0.42121  0.83317  1.0000
  C   C115      1.0  0.90972  0.69711  0.21483  1.0000
  C   C116      1.0  0.24306  0.03045  0.54816  1.0000
  C   C117      1.0  0.57639  0.36378  0.88150  1.0000
  C   C118      1.0  0.92513  0.63967  0.11718  1.0000
  C   C119      1.0  0.25846  0.97300  0.45051  1.0000
  C   C120      1.0  0.59180  0.30633  0.78384  1.0000
  C   C121      1.0  0.85232  0.71249  0.11714  1.0000
  C   C122      1.0  0.18566  0.04583  0.45047  1.0000
  C   C123      1.0  0.51899  0.37916  0.78381  1.0000
  C   C124      1.0  0.86766  0.65502  0.16654  1.0000
  C   C125      1.0  0.20099  0.98835  0.49987  1.0000
  C   C126      1.0  0.53433  0.32169  0.83320  1.0000
  C   C127      1.0  0.90975  0.69714  0.98475  1.0000
  C   C128      1.0  0.24309  0.03048  0.31808  1.0000
  C   C129      1.0  0.57642  0.36381  0.65141  1.0000
  C   C130      1.0  0.90971  0.69710  0.29893  1.0000
  C   C131      1.0  0.24304  0.03043  0.63226  1.0000
  C   C132      1.0  0.57638  0.36377  0.96559  1.0000
  C   C133      1.0  0.90965  0.69700  0.83517  1.0000
  C   C134      1.0  0.24299  0.03033  0.16850  1.0000
  C   C135      1.0  0.57632  0.36367  0.50183  1.0000
  C   C136      1.0  0.90976  0.69715  0.91771  1.0000
  C   C137      1.0  0.24310  0.03049  0.25105  1.0000
  C   C138      1.0  0.57643  0.36382  0.58438  1.0000
  H   H1        1.0  0.66992  0.62401  0.72857  1.0000
  H   H2        1.0  0.00326  0.95734  0.06190  1.0000
  H   H3        1.0  0.33659  0.29067  0.39524  1.0000
  H   H4        1.0  0.98272  0.33814  0.72831  1.0000
  H   H5        1.0  0.31605  0.67148  0.06165  1.0000
  H   H6        1.0  0.64939  0.00481  0.39498  1.0000
  F   F1        1.0  0.14158  0.61405  0.74042  1.0000
  F   F2        1.0  0.47492  0.94739  0.07375  1.0000
  F   F3        1.0  0.80825  0.28072  0.40708  1.0000
  H   H7        1.0  0.83671  0.93725  0.55604  1.0000
  H   H8        1.0  0.17004  0.27058  0.88938  1.0000
  H   H9        1.0  0.50338  0.60392  0.22271  1.0000
  H   H10       1.0  0.83666  0.05652  0.55607  1.0000
  H   H11       1.0  0.16999  0.38985  0.88941  1.0000
  H   H12       1.0  0.50333  0.72319  0.22274  1.0000
  F   F4        1.0  0.99836  0.78563  0.08876  1.0000
  F   F5        1.0  0.33169  0.11896  0.42209  1.0000
  F   F6        1.0  0.66503  0.45230  0.75542  1.0000
  H   H13       1.0  0.01572  0.66875  0.18824  1.0000
  H   H14       1.0  0.34905  0.00208  0.52157  1.0000
  H   H15       1.0  0.68239  0.33542  0.85490  1.0000
  H   H16       1.0  0.93817  0.59110  0.09560  1.0000
  H   H17       1.0  0.27151  0.92443  0.42893  1.0000
  H   H18       1.0  0.60484  0.25777  0.76226  1.0000
  F   F7        1.0  0.82114  0.60847  0.19472  1.0000
  F   F8        1.0  0.15448  0.94180  0.52805  1.0000
  F   F9        1.0  0.48781  0.27514  0.86139  1.0000
  F   F10       1.0  0.78888  0.72951  0.08875  1.0000
  F   F11       1.0  0.12222  0.06285  0.42209  1.0000
  F   F12       1.0  0.45555  0.39618  0.75542  1.0000
  H   H19       1.0  0.88142  0.80310  0.18818  1.0000
  H   H20       1.0  0.21475  0.13643  0.52151  1.0000
  H   H21       1.0  0.54809  0.46977  0.85484  1.0000
  H   H22       1.0  0.98267  0.45741  0.72834  1.0000
  H   H23       1.0  0.31600  0.79074  0.06168  1.0000
  H   H24       1.0  0.64934  0.12408  0.39501  1.0000
  F   F13       1.0  0.67836  0.77995  0.54399  1.0000
  F   F14       1.0  0.01169  0.11328  0.87733  1.0000
  F   F15       1.0  0.34502  0.44662  0.21066  1.0000
  F   F16       1.0  0.82649  0.32987  0.54426  1.0000
  F   F17       1.0  0.15982  0.66320  0.87760  1.0000
  F   F18       1.0  0.49316  0.99653  0.21093  1.0000
  F   F19       1.0  0.27752  0.78003  0.54396  1.0000
  F   F20       1.0  0.61085  0.11336  0.87730  1.0000
  F   F21       1.0  0.94419  0.44669  0.21063  1.0000
  F   F22       1.0  0.82644  0.46557  0.54428  1.0000
  F   F23       1.0  0.15977  0.79891  0.87762  1.0000
  F   F24       1.0  0.49311  0.13224  0.21095  1.0000
  H   H25       1.0  0.55086  0.76993  0.55589  1.0000
  H   H26       1.0  0.88419  0.10326  0.88922  1.0000
  H   H27       1.0  0.21752  0.43659  0.22256  1.0000
  F   F25       1.0  0.14181  0.78006  0.54396  1.0000
  F   F26       1.0  0.47515  0.11339  0.87729  1.0000
  F   F27       1.0  0.80848  0.44673  0.21063  1.0000
  F   F28       1.0  0.99295  0.92909  0.74008  1.0000
  F   F29       1.0  0.32629  0.26242  0.07342  1.0000
  F   F30       1.0  0.65962  0.59576  0.40675  1.0000
  H   H28       1.0  0.26908  0.62408  0.72852  1.0000
  H   H29       1.0  0.60242  0.95741  0.06186  1.0000
  H   H30       1.0  0.93575  0.29074  0.39519  1.0000
  H   H31       1.0  0.55065  0.62403  0.72855  1.0000
  H   H32       1.0  0.88399  0.95736  0.06188  1.0000
  H   H33       1.0  0.21732  0.29070  0.39521  1.0000
  H   H34       1.0  0.98282  0.05657  0.72826  1.0000
  H   H35       1.0  0.31616  0.38990  0.06159  1.0000
  H   H36       1.0  0.64949  0.72324  0.39493  1.0000
