data_image0
_chemical_formula_structural       O7Zn2OC18NC2NC4H3BrHBrHBr3H2
_chemical_formula_sum              "O8 Zn2 C24 N2 H7 Br5"
_cell_length_a       10.6545
_cell_length_b       16.1093
_cell_length_c       9.73022
_cell_angle_alpha    89.9942
_cell_angle_beta     89.9972
_cell_angle_gamma    83.9723

_space_group_name_H-M_alt    "P 1"
_space_group_IT_number       1

loop_
  _space_group_symop_operation_xyz
  'x, y, z'

loop_
  _atom_site_type_symbol
  _atom_site_label
  _atom_site_symmetry_multiplicity
  _atom_site_fract_x
  _atom_site_fract_y
  _atom_site_fract_z
  _atom_site_occupancy
  O   O1        1.0  0.66626  0.11676  0.88572  1.0000
  O   O2        1.0  0.30063  0.12788  0.88571  1.0000
  O   O3        1.0  0.49349  0.00135  0.88573  1.0000
  O   O4        1.0  0.47340  0.24329  0.88570  1.0000
  O   O5        1.0  0.49348  0.00135  0.11431  1.0000
  O   O6        1.0  0.30062  0.12788  0.11429  1.0000
  O   O7        1.0  0.66625  0.11675  0.11430  1.0000
  Zn  Zn1       1.0  0.48343  0.12232  0.15059  1.0000
  Zn  Zn2       1.0  0.48344  0.12232  0.84942  1.0000
  O   O8        1.0  0.47339  0.24329  0.11428  1.0000
  C   C1        1.0  0.25383  0.12707  0.00000  1.0000
  C   C2        1.0  0.11442  0.12462  0.00000  1.0000
  C   C3        1.0  0.04893  0.12347  0.12460  1.0000
  C   C4        1.0  0.91794  0.12116  0.12460  1.0000
  C   C5        1.0  0.91795  0.12116  0.87539  1.0000
  C   C6        1.0  0.04894  0.12346  0.87539  1.0000
  C   C7        1.0  0.49267  0.97037  0.00002  1.0000
  C   C8        1.0  0.49023  0.87806  0.00002  1.0000
  C   C9        1.0  0.59899  0.65643  0.00000  1.0000
  C   C10       1.0  0.59669  0.56970  0.99999  1.0000
  C   C11       1.0  0.36787  0.58821  0.99999  1.0000
  C   C12       1.0  0.37017  0.67495  0.99999  1.0000
  C   C13       1.0  0.48574  0.70905  0.00001  1.0000
  C   C14       1.0  0.48113  0.53559  0.99999  1.0000
  C   C15       1.0  0.47864  0.44154  0.99998  1.0000
  C   C16       1.0  0.48824  0.80310  0.00002  1.0000
  C   C17       1.0  0.71304  0.11757  0.00001  1.0000
  C   C18       1.0  0.85245  0.12001  1.00000  1.0000
  N   N1        1.0  0.48343  0.12231  0.35612  1.0000
  C   C19       1.0  0.47421  0.27427  0.99999  1.0000
  C   C20       1.0  0.47665  0.36658  0.99998  1.0000
  N   N2        1.0  0.48346  0.12232  0.64389  1.0000
  C   C21       1.0  0.56885  0.06631  0.42806  1.0000
  C   C22       1.0  0.56887  0.06631  0.57194  1.0000
  C   C23       1.0  0.39802  0.17833  0.57194  1.0000
  C   C24       1.0  0.39800  0.17832  0.42806  1.0000
  H   H1        1.0  0.86462  0.12022  0.77394  1.0000
  H   H2        1.0  0.86462  0.12023  0.22606  1.0000
  H   H3        1.0  0.10227  0.12440  0.77392  1.0000
  Br  Br1       1.0  0.75583  0.70272  0.00002  1.0000
  H   H4        1.0  0.63843  0.02070  0.63050  1.0000
  Br  Br2       1.0  0.75040  0.49828  0.99998  1.0000
  H   H5        1.0  0.27378  0.56043  0.99999  1.0000
  Br  Br3       1.0  0.21646  0.74637  0.99998  1.0000
  Br  Br4       1.0  0.68478  0.99029  0.33043  1.0000
  Br  Br5       1.0  0.28210  0.25434  0.66958  1.0000
  H   H6        1.0  0.32843  0.22393  0.36949  1.0000
  H   H7        1.0  0.10224  0.12442  0.22606  1.0000
