data_image0
_chemical_formula_structural       O7Cu2OC2NC26NC14H2OCH4OCH3OCH5OCH5OCH3OCH6OCH6OCH4
_chemical_formula_sum              "O16 Cu2 C50 N2 H38"
_cell_length_a       13.3391
_cell_length_b       14.4215
_cell_length_c       13.3391
_cell_angle_alpha    90.0079
_cell_angle_beta     64.3707
_cell_angle_gamma    90.0103

_space_group_name_H-M_alt    "P 1"
_space_group_IT_number       1

loop_
  _space_group_symop_operation_xyz
  'x, y, z'

loop_
  _atom_site_type_symbol
  _atom_site_label
  _atom_site_symmetry_multiplicity
  _atom_site_fract_x
  _atom_site_fract_y
  _atom_site_fract_z
  _atom_site_occupancy
  O   O1        1.0  0.49681  0.07714  0.44949  1.0000
  O   O2        1.0  0.18200  0.07713  0.52175  1.0000
  O   O3        1.0  0.30328  0.07713  0.64302  1.0000
  O   O4        1.0  0.37554  0.07714  0.32821  1.0000
  O   O5        1.0  0.30325  0.92291  0.64300  1.0000
  O   O6        1.0  0.18198  0.92291  0.52173  1.0000
  O   O7        1.0  0.49679  0.92291  0.44947  1.0000
  Cu  Cu1       1.0  0.33938  0.90883  0.48560  1.0000
  Cu  Cu2       1.0  0.33941  0.09122  0.48562  1.0000
  O   O8        1.0  0.37551  0.92291  0.32820  1.0000
  C   C1        1.0  0.14087  0.00002  0.53394  1.0000
  C   C2        1.0  0.01836  0.00002  0.57033  1.0000
  N   N1        1.0  0.33937  0.78055  0.48558  1.0000
  C   C3        1.0  0.73297  0.00004  0.28743  1.0000
  C   C4        1.0  0.84808  0.00004  0.25324  1.0000
  C   C5        1.0  0.89066  0.00004  0.33251  1.0000
  C   C6        1.0  0.81811  0.00003  0.44597  1.0000
  C   C7        1.0  0.70299  0.00003  0.48016  1.0000
  C   C8        1.0  0.86068  0.00003  0.52524  1.0000
  C   C9        1.0  0.78813  0.00002  0.63871  1.0000
  C   C10       1.0  0.67302  0.00002  0.67289  1.0000
  C   C11       1.0  0.63045  0.00003  0.59362  1.0000
  C   C12       1.0  0.97580  0.00002  0.49105  1.0000
  C   C13       1.0  0.94582  0.00001  0.68379  1.0000
  C   C14       1.0  0.83071  0.00001  0.71798  1.0000
  C   C15       1.0  0.28327  0.53089  0.42954  1.0000
  C   C16       1.0  0.38848  0.46909  0.38038  1.0000
  C   C17       1.0  0.33939  0.59139  0.48560  1.0000
  C   C18       1.0  0.23422  0.46909  0.53473  1.0000
  C   C19       1.0  0.33940  0.40866  0.48562  1.0000
  C   C20       1.0  0.44467  0.53095  0.43637  1.0000
  C   C21       1.0  0.29032  0.53095  0.59079  1.0000
  C   C22       1.0  0.39559  0.46918  0.54164  1.0000
  C   C23       1.0  0.33939  0.69665  0.48559  1.0000
  C   C24       1.0  0.33942  0.30341  0.48563  1.0000
  C   C25       1.0  0.53791  0.00003  0.43727  1.0000
  C   C26       1.0  0.66043  0.00003  0.40089  1.0000
  C   C27       1.0  0.29106  0.00002  0.68413  1.0000
  C   C28       1.0  0.25468  0.00002  0.80664  1.0000
  N   N2        1.0  0.33942  0.21950  0.48564  1.0000
  C   C29       1.0  0.38773  0.00003  0.28709  1.0000
  C   C30       1.0  0.42411  0.00003  0.16457  1.0000
  C   C31       1.0  0.53757  0.00003  0.09203  1.0000
  C   C32       1.0  0.57176  0.00002  0.97692  1.0000
  C   C33       1.0  0.49249  0.00002  0.93435  1.0000
  C   C34       1.0  0.37903  0.00003  0.00689  1.0000
  C   C35       1.0  0.34484  0.00003  0.12201  1.0000
  C   C36       1.0  0.29976  0.00002  0.96433  1.0000
  C   C37       1.0  0.18630  0.00003  0.03687  1.0000
  C   C38       1.0  0.15211  0.00003  0.15198  1.0000
  C   C39       1.0  0.23138  0.00003  0.19456  1.0000
  C   C40       1.0  0.33395  0.00002  0.84921  1.0000
  C   C41       1.0  0.14122  0.00003  0.87919  1.0000
  C   C42       1.0  0.10703  0.00003  0.99429  1.0000
  H   H1        1.0  0.03485  0.00003  0.39867  1.0000
  H   H2        1.0  0.42999  0.44192  0.29143  1.0000
  O   O9        1.0  0.60267  0.00014  0.78314  1.0000
  C   C43       1.0  0.62167  0.08002  0.83341  1.0000
  H   H3        1.0  0.70952  0.10665  0.78119  1.0000
  H   H4        1.0  0.61190  0.06205  0.92040  1.0000
  H   H5        1.0  0.55897  0.13595  0.83931  1.0000
  H   H6        1.0  0.07667  0.00002  0.84452  1.0000
  O   O10       1.0  0.68196  0.99985  0.90641  1.0000
  C   C44       1.0  0.70748  0.91999  0.83890  1.0000
  H   H7        1.0  0.64248  0.86416  0.88210  1.0000
  H   H8        1.0  0.79309  0.89318  0.82433  1.0000
  H   H9        1.0  0.70750  0.93805  0.75569  1.0000
  O   O11       1.0  0.45237  0.43720  0.59818  1.0000
  C   C45       1.0  0.49273  0.51285  0.63694  1.0000
  H   H10       1.0  0.49943  0.57645  0.58366  1.0000
  H   H11       1.0  0.57827  0.49518  0.63140  1.0000
  H   H12       1.0  0.43313  0.52811  0.72710  1.0000
  H   H13       1.0  0.53672  0.00002  0.62145  1.0000
  H   H14       1.0  0.60210  0.00002  0.12671  1.0000
  O   O12       1.0  0.69167  0.00021  0.21040  1.0000
  C   C46       1.0  0.72895  0.08008  0.14341  1.0000
  H   H15       1.0  0.75184  0.13590  0.19041  1.0000
  H   H16       1.0  0.66004  0.10690  0.12220  1.0000
  H   H17       1.0  0.80510  0.06202  0.06348  1.0000
  H   H18       1.0  0.24878  0.55814  0.67972  1.0000
  H   H19       1.0  0.20355  0.00004  0.28828  1.0000
  O   O13       1.0  0.91858  0.00023  0.14304  1.0000
  C   C47       1.0  0.98608  0.08010  0.11753  1.0000
  H   H20       1.0  0.94289  0.13591  0.18255  1.0000
  H   H21       1.0  0.00062  0.10694  0.03194  1.0000
  H   H22       1.0  0.06930  0.06205  0.11749  1.0000
  O   O14       1.0  0.76034  0.00013  0.82822  1.0000
  C   C48       1.0  0.77934  0.08001  0.87850  1.0000
  H   H23       1.0  0.86719  0.10664  0.82628  1.0000
  H   H24       1.0  0.76956  0.06205  0.96549  1.0000
  H   H25       1.0  0.71664  0.13595  0.88438  1.0000
  H   H26       1.0  0.52034  0.00001  0.84062  1.0000
  H   H27       1.0  0.53366  0.55800  0.39472  1.0000
  H   H28       1.0  0.05972  0.00003  0.21104  1.0000
  O   O15       1.0  0.12804  0.43679  0.58420  1.0000
  C   C49       1.0  0.06919  0.46822  0.52480  1.0000
  H   H29       1.0  0.11080  0.53330  0.47605  1.0000
  H   H30       1.0  0.97983  0.48487  0.58555  1.0000
  H   H31       1.0  0.06935  0.41190  0.46475  1.0000
  H   H32       1.0  0.98048  0.00001  0.74833  1.0000
  H   H33       1.0  0.23589  0.55799  0.38207  1.0000
  H   H34       1.0  0.01465  0.00004  0.05338  1.0000
  O   O16       1.0  0.00245  0.99991  0.29944  1.0000
  C   C50       1.0  0.03268  0.92002  0.34084  1.0000
  H   H35       1.0  0.95758  0.89339  0.41680  1.0000
  H   H36       1.0  0.10232  0.93798  0.36534  1.0000
  H   H37       1.0  0.06256  0.86410  0.27385  1.0000
  H   H38       1.0  0.42633  0.00001  0.79015  1.0000
