data_image0
_chemical_formula_structural       O7Cu2OC2NC20NC2HCNCNCNHCNCNHCNH2CNH2CNHO7Cu2OC2NC20NC2HCNCNCNHCNCNHCNH2CNH2CNH
_chemical_formula_sum              "O16 Cu4 C64 N20 H16"
_cell_length_a       19.2888
_cell_length_b       14.1779
_cell_length_c       8.5973
_cell_angle_alpha    76.0276
_cell_angle_beta     95.7648
_cell_angle_gamma    83.8258

_space_group_name_H-M_alt    "P 1"
_space_group_IT_number       1

loop_
  _space_group_symop_operation_xyz
  'x, y, z'

loop_
  _atom_site_type_symbol
  _atom_site_label
  _atom_site_symmetry_multiplicity
  _atom_site_fract_x
  _atom_site_fract_y
  _atom_site_fract_z
  _atom_site_occupancy
  O   O1        1.0  0.91436  0.09739  0.78459  1.0000
  O   O2        1.0  0.71212  0.09957  0.75769  1.0000
  O   O3        1.0  0.81890  0.07934  0.00353  1.0000
  O   O4        1.0  0.80757  0.11762  0.53875  1.0000
  O   O5        1.0  0.83317  0.41764  0.03646  1.0000
  O   O6        1.0  0.72639  0.43787  0.79062  1.0000
  O   O7        1.0  0.92863  0.43569  0.81751  1.0000
  Cu  Cu1       1.0  0.82881  0.42202  0.80707  1.0000
  Cu  Cu2       1.0  0.81193  0.11324  0.76813  1.0000
  O   O8        1.0  0.82184  0.45592  0.57167  1.0000
  C   C1        1.0  0.69338  0.01865  0.77502  1.0000
  C   C2        1.0  0.61627  0.01842  0.77760  1.0000
  N   N1        1.0  0.84069  0.28752  0.83446  1.0000
  C   C3        1.0  0.57229  0.10646  0.76088  1.0000
  C   C4        1.0  0.49984  0.10627  0.76332  1.0000
  C   C5        1.0  0.47138  0.01804  0.78251  1.0000
  C   C6        1.0  0.51537  0.42998  0.79921  1.0000
  C   C7        1.0  0.58782  0.43018  0.79675  1.0000
  C   C8        1.0  0.36793  0.44250  0.89364  1.0000
  C   C9        1.0  0.29549  0.44231  0.89610  1.0000
  C   C10       1.0  0.24793  0.01744  0.79007  1.0000
  C   C11       1.0  0.27282  0.09277  0.68159  1.0000
  C   C12       1.0  0.34526  0.09296  0.67914  1.0000
  C   C13       1.0  0.39282  0.01782  0.78517  1.0000
  C   C14       1.0  0.12538  0.10528  0.77600  1.0000
  C   C15       1.0  0.05293  0.10509  0.77843  1.0000
  C   C16       1.0  0.06846  0.42879  0.81433  1.0000
  C   C17       1.0  0.14091  0.42899  0.81188  1.0000
  C   C18       1.0  0.16937  0.01724  0.79273  1.0000
  C   C19       1.0  0.94737  0.01662  0.80019  1.0000
  C   C20       1.0  0.02448  0.01685  0.79761  1.0000
  C   C21       1.0  0.82562  0.49360  0.07946  1.0000
  C   C22       1.0  0.82435  0.47901  0.25664  1.0000
  N   N2        1.0  0.80006  0.24774  0.74075  1.0000
  C   C23       1.0  0.81513  0.04167  0.49575  1.0000
  C   C24       1.0  0.81639  0.05627  0.31857  1.0000
  H   H1        1.0  0.59545  0.17832  0.74528  1.0000
  C   C25       1.0  0.80850  0.16071  0.20708  1.0000
  N   N3        1.0  0.80256  0.23938  0.12310  1.0000
  C   C26       1.0  0.89757  0.22157  0.96566  1.0000
  N   N4        1.0  0.94041  0.17190  0.06447  1.0000
  C   C27       1.0  0.15668  0.20235  0.75490  1.0000
  N   N5        1.0  0.18025  0.27547  0.73899  1.0000
  H   H2        1.0  0.83019  0.40169  0.33917  1.0000
  C   C28       1.0  0.45145  0.20313  0.74495  1.0000
  N   N6        1.0  0.41500  0.27608  0.73112  1.0000
  C   C29       1.0  0.37264  0.17578  0.55974  1.0000
  N   N7        1.0  0.39326  0.23815  0.46978  1.0000
  H   H3        1.0  0.23409  0.15394  0.59525  1.0000
  C   C30       1.0  0.03716  0.33173  0.83543  1.0000
  N   N8        1.0  0.01358  0.25862  0.85132  1.0000
  H   H4        1.0  0.01712  0.17679  0.76481  1.0000
  H   H5        1.0  0.27523  0.38098  0.98443  1.0000
  C   C31       1.0  0.18930  0.33213  0.83029  1.0000
  N   N9        1.0  0.22574  0.25918  0.84415  1.0000
  H   H6        1.0  0.75796  0.29656  0.64364  1.0000
  H   H7        1.0  0.49219  0.35814  0.81482  1.0000
  C   C32       1.0  0.42025  0.35986  0.01029  1.0000
  N   N10       1.0  0.45965  0.29761  0.09815  1.0000
  H   H8        1.0  0.62363  0.35848  0.81036  1.0000
  O   O9        1.0  0.91436  0.59739  0.78459  1.0000
  O   O10       1.0  0.71212  0.59957  0.75769  1.0000
  O   O11       1.0  0.81890  0.57934  0.00353  1.0000
  O   O12       1.0  0.80757  0.61762  0.53875  1.0000
  O   O13       1.0  0.83317  0.91764  0.03646  1.0000
  O   O14       1.0  0.72639  0.93787  0.79062  1.0000
  O   O15       1.0  0.92863  0.93569  0.81751  1.0000
  Cu  Cu3       1.0  0.82881  0.92202  0.80707  1.0000
  Cu  Cu4       1.0  0.81193  0.61324  0.76813  1.0000
  O   O16       1.0  0.82184  0.95592  0.57167  1.0000
  C   C33       1.0  0.69338  0.51865  0.77502  1.0000
  C   C34       1.0  0.61627  0.51842  0.77760  1.0000
  N   N11       1.0  0.84069  0.78752  0.83446  1.0000
  C   C35       1.0  0.57229  0.60646  0.76088  1.0000
  C   C36       1.0  0.49984  0.60627  0.76332  1.0000
  C   C37       1.0  0.47138  0.51804  0.78251  1.0000
  C   C38       1.0  0.51537  0.92998  0.79921  1.0000
  C   C39       1.0  0.58782  0.93018  0.79675  1.0000
  C   C40       1.0  0.36793  0.94250  0.89364  1.0000
  C   C41       1.0  0.29549  0.94231  0.89610  1.0000
  C   C42       1.0  0.24793  0.51744  0.79007  1.0000
  C   C43       1.0  0.27282  0.59277  0.68159  1.0000
  C   C44       1.0  0.34526  0.59296  0.67914  1.0000
  C   C45       1.0  0.39282  0.51782  0.78517  1.0000
  C   C46       1.0  0.12538  0.60528  0.77600  1.0000
  C   C47       1.0  0.05293  0.60509  0.77843  1.0000
  C   C48       1.0  0.06846  0.92879  0.81433  1.0000
  C   C49       1.0  0.14091  0.92899  0.81188  1.0000
  C   C50       1.0  0.16937  0.51724  0.79273  1.0000
  C   C51       1.0  0.94737  0.51662  0.80019  1.0000
  C   C52       1.0  0.02448  0.51685  0.79761  1.0000
  C   C53       1.0  0.82562  0.99360  0.07946  1.0000
  C   C54       1.0  0.82435  0.97901  0.25664  1.0000
  N   N12       1.0  0.80006  0.74774  0.74075  1.0000
  C   C55       1.0  0.81513  0.54167  0.49575  1.0000
  C   C56       1.0  0.81639  0.55627  0.31857  1.0000
  H   H9        1.0  0.59545  0.67832  0.74528  1.0000
  C   C57       1.0  0.80850  0.66071  0.20708  1.0000
  N   N13       1.0  0.80256  0.73938  0.12310  1.0000
  C   C58       1.0  0.89757  0.72157  0.96566  1.0000
  N   N14       1.0  0.94041  0.67189  0.06447  1.0000
  C   C59       1.0  0.15668  0.70235  0.75490  1.0000
  N   N15       1.0  0.18025  0.77547  0.73899  1.0000
  H   H10       1.0  0.83019  0.90169  0.33917  1.0000
  C   C60       1.0  0.45145  0.70313  0.74495  1.0000
  N   N16       1.0  0.41500  0.77608  0.73112  1.0000
  C   C61       1.0  0.37264  0.67578  0.55974  1.0000
  N   N17       1.0  0.39326  0.73815  0.46978  1.0000
  H   H11       1.0  0.23409  0.65394  0.59525  1.0000
  C   C62       1.0  0.03716  0.83173  0.83543  1.0000
  N   N18       1.0  0.01358  0.75862  0.85132  1.0000
  H   H12       1.0  0.01712  0.67679  0.76481  1.0000
  H   H13       1.0  0.27523  0.88098  0.98443  1.0000
  C   C63       1.0  0.18930  0.83213  0.83029  1.0000
  N   N19       1.0  0.22574  0.75918  0.84415  1.0000
  H   H14       1.0  0.75796  0.79656  0.64364  1.0000
  H   H15       1.0  0.49219  0.85814  0.81482  1.0000
  C   C64       1.0  0.42025  0.85986  0.01029  1.0000
  N   N20       1.0  0.45965  0.79761  0.09815  1.0000
  H   H16       1.0  0.62363  0.85848  0.81036  1.0000
