data_image0
_chemical_formula_structural       O21Zn6O3C60N6C6H12N3H6N3H6N3H9N3H9N3H9
_chemical_formula_sum              "O24 Zn6 C66 N21 H51"
_cell_length_a       11.7923
_cell_length_b       15.9953
_cell_length_c       10.8683
_cell_angle_alpha    89.9981
_cell_angle_beta     89.9957
_cell_angle_gamma    83.8336

_space_group_name_H-M_alt    "P 1"
_space_group_IT_number       1

loop_
  _space_group_symop_operation_xyz
  'x, y, z'

loop_
  _atom_site_type_symbol
  _atom_site_label
  _atom_site_symmetry_multiplicity
  _atom_site_fract_x
  _atom_site_fract_y
  _atom_site_fract_z
  _atom_site_occupancy
  O   O1        1.0  0.50591  0.11482  0.89769  1.0000
  O   O2        1.0  0.83924  0.44815  0.23102  1.0000
  O   O3        1.0  0.17258  0.78148  0.56436  1.0000
  O   O4        1.0  0.17547  0.12663  0.89769  1.0000
  O   O5        1.0  0.50880  0.45997  0.23102  1.0000
  O   O6        1.0  0.84214  0.79330  0.56435  1.0000
  O   O7        1.0  0.34976  0.99888  0.89768  1.0000
  O   O8        1.0  0.68309  0.33221  0.23102  1.0000
  O   O9        1.0  0.01642  0.66554  0.56435  1.0000
  O   O10       1.0  0.33162  0.24258  0.89769  1.0000
  O   O11       1.0  0.66495  0.57591  0.23102  1.0000
  O   O12       1.0  0.99829  0.90924  0.56436  1.0000
  O   O13       1.0  0.34974  0.99887  0.10233  1.0000
  O   O14       1.0  0.68308  0.33220  0.43566  1.0000
  O   O15       1.0  0.01641  0.66554  0.76900  1.0000
  O   O16       1.0  0.17545  0.12663  0.10233  1.0000
  O   O17       1.0  0.50879  0.45996  0.43566  1.0000
  O   O18       1.0  0.84212  0.79330  0.76900  1.0000
  O   O19       1.0  0.50589  0.11481  0.10233  1.0000
  O   O20       1.0  0.83923  0.44815  0.43567  1.0000
  O   O21       1.0  0.17256  0.78148  0.76900  1.0000
  Zn  Zn1       1.0  0.34067  0.12072  0.13482  1.0000
  Zn  Zn2       1.0  0.67401  0.45405  0.46816  1.0000
  Zn  Zn3       1.0  0.00734  0.78739  0.80149  1.0000
  Zn  Zn4       1.0  0.34069  0.12073  0.86520  1.0000
  Zn  Zn5       1.0  0.67402  0.45406  0.19853  1.0000
  Zn  Zn6       1.0  0.00736  0.78739  0.53186  1.0000
  O   O22       1.0  0.33161  0.24257  0.10233  1.0000
  O   O23       1.0  0.66494  0.57590  0.43567  1.0000
  O   O24       1.0  0.99827  0.90924  0.76900  1.0000
  C   C1        1.0  0.13318  0.12589  0.00001  1.0000
  C   C2        1.0  0.46651  0.45922  0.33334  1.0000
  C   C3        1.0  0.79984  0.79255  0.66668  1.0000
  C   C4        1.0  0.00718  0.12366  0.00001  1.0000
  C   C5        1.0  0.34052  0.45699  0.33334  1.0000
  C   C6        1.0  0.67385  0.79033  0.66667  1.0000
  C   C7        1.0  0.90486  0.12185  0.00000  1.0000
  C   C8        1.0  0.23820  0.45518  0.33333  1.0000
  C   C9        1.0  0.57153  0.78852  0.66667  1.0000
  C   C10       1.0  0.77650  0.11959  0.00000  1.0000
  C   C11       1.0  0.10983  0.45292  0.33333  1.0000
  C   C12       1.0  0.44316  0.78625  0.66667  1.0000
  C   C13       1.0  0.34901  0.96767  0.00001  1.0000
  C   C14       1.0  0.68234  0.30101  0.33334  1.0000
  C   C15       1.0  0.01568  0.63434  0.66667  1.0000
  C   C16       1.0  0.34680  0.87471  1.00000  1.0000
  C   C17       1.0  0.68013  0.20804  0.33333  1.0000
  C   C18       1.0  0.01347  0.54138  0.66666  1.0000
  C   C19       1.0  0.33866  0.53694  0.00001  1.0000
  C   C20       1.0  0.67200  0.87027  0.33334  1.0000
  C   C21       1.0  0.00533  0.20360  0.66667  1.0000
  C   C22       1.0  0.46446  0.56082  0.00046  1.0000
  C   C23       1.0  0.79779  0.89416  0.33380  1.0000
  C   C24       1.0  0.13113  0.22749  0.66713  1.0000
  C   C25       1.0  0.46685  0.65751  1.00000  1.0000
  C   C26       1.0  0.80018  0.99084  0.33333  1.0000
  C   C27       1.0  0.13352  0.32418  0.66667  1.0000
  C   C28       1.0  0.34270  0.70451  0.00000  1.0000
  C   C29       1.0  0.67603  0.03784  0.33333  1.0000
  C   C30       1.0  0.00937  0.37118  0.66667  1.0000
  C   C31       1.0  0.27982  0.67512  0.88314  1.0000
  C   C32       1.0  0.61315  0.00846  0.21648  1.0000
  C   C33       1.0  0.94648  0.34179  0.54981  1.0000
  C   C34       1.0  0.27830  0.57833  0.88305  1.0000
  C   C35       1.0  0.61164  0.91166  0.21638  1.0000
  C   C36       1.0  0.94497  0.24499  0.54972  1.0000
  C   C37       1.0  0.27572  0.57845  0.11577  1.0000
  C   C38       1.0  0.60905  0.91179  0.44910  1.0000
  C   C39       1.0  0.94238  0.24512  0.78244  1.0000
  C   C40       1.0  0.28038  0.67497  0.11731  1.0000
  C   C41       1.0  0.61371  0.00830  0.45064  1.0000
  C   C42       1.0  0.94704  0.34163  0.78398  1.0000
  C   C43       1.0  0.34498  0.79922  1.00000  1.0000
  C   C44       1.0  0.67831  0.13255  0.33333  1.0000
  C   C45       1.0  0.01164  0.46588  0.66666  1.0000
  C   C46       1.0  0.33639  0.44223  0.00001  1.0000
  C   C47       1.0  0.66972  0.77556  0.33334  1.0000
  C   C48       1.0  0.00305  0.10890  0.66667  1.0000
  C   C49       1.0  0.54819  0.11556  0.00001  1.0000
  C   C50       1.0  0.88152  0.44889  0.33334  1.0000
  C   C51       1.0  0.21485  0.78223  0.66668  1.0000
  C   C52       1.0  0.67418  0.11779  0.00000  1.0000
  C   C53       1.0  0.00751  0.45112  0.33333  1.0000
  C   C54       1.0  0.34085  0.78445  0.66667  1.0000
  C   C55       1.0  0.33235  0.27377  0.00001  1.0000
  C   C56       1.0  0.66569  0.60710  0.33335  1.0000
  C   C57       1.0  0.99902  0.94044  0.66668  1.0000
  C   C58       1.0  0.33457  0.36673  0.00001  1.0000
  C   C59       1.0  0.66790  0.70007  0.33335  1.0000
  C   C60       1.0  0.00123  0.03340  0.66668  1.0000
  N   N1        1.0  0.34067  0.12071  0.31884  1.0000
  N   N2        1.0  0.67400  0.45405  0.65217  1.0000
  N   N3        1.0  0.00733  0.78738  0.98550  1.0000
  N   N4        1.0  0.34071  0.12072  0.68118  1.0000
  N   N5        1.0  0.67404  0.45406  0.01452  1.0000
  N   N6        1.0  0.00737  0.78739  0.34785  1.0000
  C   C61       1.0  0.34068  0.12072  0.56984  1.0000
  C   C62       1.0  0.67402  0.45406  0.90318  1.0000
  C   C63       1.0  0.00735  0.78739  0.23651  1.0000
  C   C64       1.0  0.34067  0.12072  0.43017  1.0000
  C   C65       1.0  0.67400  0.45405  0.76350  1.0000
  C   C66       1.0  0.00734  0.78739  0.09683  1.0000
  H   H1        1.0  0.51294  0.53304  0.08427  1.0000
  H   H2        1.0  0.84628  0.86638  0.41760  1.0000
  H   H3        1.0  0.17961  0.19971  0.75094  1.0000
  H   H4        1.0  0.31533  0.55054  0.20435  1.0000
  H   H5        1.0  0.64866  0.88388  0.53768  1.0000
  H   H6        1.0  0.98199  0.21721  0.87101  1.0000
  H   H7        1.0  0.51268  0.53203  0.91713  1.0000
  H   H8        1.0  0.84602  0.86536  0.25046  1.0000
  H   H9        1.0  0.17935  0.19869  0.58380  1.0000
  H   H10       1.0  0.51640  0.67614  0.91608  1.0000
  H   H11       1.0  0.84974  0.00948  0.24942  1.0000
  H   H12       1.0  0.18307  0.34281  0.58275  1.0000
  N   N7        1.0  0.33602  0.54306  0.76735  1.0000
  N   N8        1.0  0.66935  0.87640  0.10068  1.0000
  N   N9        1.0  0.00269  0.20973  0.43402  1.0000
  H   H13       1.0  0.36220  0.59042  0.71689  1.0000
  H   H14       1.0  0.69554  0.92375  0.05022  1.0000
  H   H15       1.0  0.02887  0.25709  0.38356  1.0000
  H   H16       1.0  0.40402  0.50214  0.79012  1.0000
  H   H17       1.0  0.73736  0.83547  0.12345  1.0000
  H   H18       1.0  0.07069  0.16880  0.45678  1.0000
  N   N10       1.0  0.15613  0.55848  0.87601  1.0000
  N   N11       1.0  0.48947  0.89182  0.20934  1.0000
  N   N12       1.0  0.82280  0.22515  0.54268  1.0000
  H   H19       1.0  0.10350  0.61260  0.87298  1.0000
  H   H20       1.0  0.43684  0.94593  0.20631  1.0000
  H   H21       1.0  0.77017  0.27926  0.53964  1.0000
  H   H22       1.0  0.14539  0.52447  0.79941  1.0000
  H   H23       1.0  0.47873  0.85780  0.13274  1.0000
  H   H24       1.0  0.81206  0.19113  0.46608  1.0000
  N   N13       1.0  0.15881  0.71679  0.87737  1.0000
  N   N14       1.0  0.49214  0.05012  0.21070  1.0000
  N   N15       1.0  0.82547  0.38346  0.54404  1.0000
  H   H25       1.0  0.12002  0.69699  0.80154  1.0000
  H   H26       1.0  0.45335  0.03032  0.13487  1.0000
  H   H27       1.0  0.78668  0.36365  0.46820  1.0000
  H   H28       1.0  0.11594  0.70146  0.95312  1.0000
  H   H29       1.0  0.44928  0.03479  0.28646  1.0000
  H   H30       1.0  0.78261  0.36813  0.61979  1.0000
  H   H31       1.0  0.32350  0.69539  0.79618  1.0000
  H   H32       1.0  0.65683  0.02872  0.12951  1.0000
  H   H33       1.0  0.99016  0.36205  0.46284  1.0000
  N   N16       1.0  0.53210  0.68301  0.11094  1.0000
  N   N17       1.0  0.86544  0.01634  0.44428  1.0000
  N   N18       1.0  0.19877  0.34968  0.77761  1.0000
  H   H34       1.0  0.53379  0.74601  0.11085  1.0000
  H   H35       1.0  0.86712  0.07934  0.44418  1.0000
  H   H36       1.0  0.20046  0.41267  0.77751  1.0000
  H   H37       1.0  0.49349  0.66560  0.18836  1.0000
  H   H38       1.0  0.82682  0.99893  0.52169  1.0000
  H   H39       1.0  0.16015  0.33227  0.85503  1.0000
  H   H40       1.0  0.18976  0.70752  0.12437  1.0000
  H   H41       1.0  0.52309  0.04085  0.45770  1.0000
  H   H42       1.0  0.85643  0.37419  0.79104  1.0000
  N   N19       1.0  0.34102  0.69983  0.23183  1.0000
  N   N20       1.0  0.67435  0.03317  0.56516  1.0000
  N   N21       1.0  0.00768  0.36650  0.89850  1.0000
  H   H43       1.0  0.40857  0.73011  0.20784  1.0000
  H   H44       1.0  0.74191  0.06345  0.54117  1.0000
  H   H45       1.0  0.07524  0.39678  0.87451  1.0000
  H   H46       1.0  0.28672  0.73822  0.28368  1.0000
  H   H47       1.0  0.62005  0.07155  0.61701  1.0000
  H   H48       1.0  0.95338  0.40489  0.95034  1.0000
  H   H49       1.0  0.18312  0.56404  0.11656  1.0000
  H   H50       1.0  0.51645  0.89737  0.44989  1.0000
  H   H51       1.0  0.84979  0.23071  0.78322  1.0000
