data_image0
_chemical_formula_structural       O7Cu2OC40N2C8H7C3H8C3H8C3H7C3H8C3H7C3H8C3H8C3H13
_chemical_formula_sum              "O8 Cu2 C72 N2 H74"
_cell_length_a       15.6251
_cell_length_b       15.5382
_cell_length_c       9.13031
_cell_angle_alpha    90.0028
_cell_angle_beta     108.083
_cell_angle_gamma    66.7402

_space_group_name_H-M_alt    "P 1"
_space_group_IT_number       1

loop_
  _space_group_symop_operation_xyz
  'x, y, z'

loop_
  _atom_site_type_symbol
  _atom_site_label
  _atom_site_symmetry_multiplicity
  _atom_site_fract_x
  _atom_site_fract_y
  _atom_site_fract_z
  _atom_site_occupancy
  O   O1        1.0  0.15599  0.12297  0.49229  1.0000
  O   O2        1.0  0.88872  0.13760  0.35031  1.0000
  O   O3        1.0  0.07438  0.99323  0.44893  1.0000
  O   O4        1.0  0.97033  0.26734  0.39367  1.0000
  O   O5        1.0  0.07438  0.99323  0.69252  1.0000
  O   O6        1.0  0.88871  0.13761  0.59391  1.0000
  O   O7        1.0  0.15599  0.12297  0.73588  1.0000
  Cu  Cu1       1.0  0.02235  0.13029  0.68714  1.0000
  Cu  Cu2       1.0  0.02235  0.13029  0.39906  1.0000
  O   O8        1.0  0.97032  0.26735  0.63726  1.0000
  C   C1        1.0  0.85535  0.13694  0.45438  1.0000
  C   C2        1.0  0.75591  0.13495  0.40156  1.0000
  C   C3        1.0  0.08526  0.95815  0.57650  1.0000
  C   C4        1.0  0.11769  0.85362  0.59371  1.0000
  C   C5        1.0  0.61577  0.13214  0.19434  1.0000
  C   C6        1.0  0.70920  0.13401  0.24399  1.0000
  C   C7        1.0  0.70921  0.13402  0.50955  1.0000
  C   C8        1.0  0.61577  0.13215  0.45992  1.0000
  C   C9        1.0  0.56906  0.13121  0.30232  1.0000
  C   C10       1.0  0.56906  0.13123  0.56790  1.0000
  C   C11       1.0  0.47564  0.12935  0.51828  1.0000
  C   C12       1.0  0.42892  0.12841  0.36068  1.0000
  C   C13       1.0  0.47564  0.12934  0.25269  1.0000
  C   C14       1.0  0.61577  0.13216  0.72551  1.0000
  C   C15       1.0  0.56907  0.13123  0.83349  1.0000
  C   C16       1.0  0.47564  0.12937  0.78386  1.0000
  C   C17       1.0  0.42892  0.12843  0.62626  1.0000
  C   C18       1.0  0.42892  0.12844  0.89185  1.0000
  C   C19       1.0  0.33550  0.12657  0.84223  1.0000
  C   C20       1.0  0.33550  0.12655  0.57664  1.0000
  C   C21       1.0  0.79553  0.56539  0.42261  1.0000
  C   C22       1.0  0.82602  0.46717  0.43881  1.0000
  C   C23       1.0  0.99754  0.44496  0.52992  1.0000
  C   C24       1.0  0.96706  0.54318  0.51372  1.0000
  C   C25       1.0  0.86606  0.60339  0.46007  1.0000
  C   C26       1.0  0.03759  0.58118  0.55118  1.0000
  C   C27       1.0  0.00711  0.67940  0.53499  1.0000
  C   C28       1.0  0.90611  0.73961  0.48134  1.0000
  C   C29       1.0  0.83558  0.70161  0.44388  1.0000
  C   C30       1.0  0.13860  0.52097  0.60485  1.0000
  C   C31       1.0  0.20912  0.55897  0.64230  1.0000
  C   C32       1.0  0.17865  0.65718  0.62610  1.0000
  C   C33       1.0  0.07764  0.71740  0.57245  1.0000
  C   C34       1.0  0.24918  0.69519  0.66356  1.0000
  C   C35       1.0  0.21870  0.79341  0.64737  1.0000
  C   C36       1.0  0.04717  0.81562  0.55626  1.0000
  C   C37       1.0  0.18936  0.12363  0.63181  1.0000
  C   C38       1.0  0.28879  0.12563  0.68462  1.0000
  C   C39       1.0  0.95944  0.30243  0.50968  1.0000
  C   C40       1.0  0.92701  0.40696  0.49246  1.0000
  N   N1        1.0  0.02235  0.13029  0.88976  1.0000
  N   N2        1.0  0.02236  0.13028  0.19643  1.0000
  C   C41       1.0  0.10457  0.06638  0.01009  1.0000
  C   C42       1.0  0.10458  0.06637  0.16342  1.0000
  C   C43       1.0  0.94013  0.19419  0.07610  1.0000
  C   C44       1.0  0.94013  0.19419  0.92276  1.0000
  C   C45       1.0  0.18680  0.00248  0.97709  1.0000
  C   C46       1.0  0.26903  0.93857  0.09742  1.0000
  C   C47       1.0  0.26903  0.93856  0.25076  1.0000
  C   C48       1.0  0.18680  0.00246  0.28376  1.0000
  H   H1        1.0  0.29746  0.12580  0.44830  1.0000
  H   H2        1.0  0.74725  0.13478  0.63787  1.0000
  H   H3        1.0  0.18681  0.00249  0.85224  1.0000
  H   H4        1.0  0.69185  0.13369  0.76590  1.0000
  H   H5        1.0  0.33597  0.88654  0.07053  1.0000
  H   H6        1.0  0.27613  0.82434  0.67787  1.0000
  H   H7        1.0  0.88130  0.81959  0.46816  1.0000
  C   C49       1.0  0.68590  0.63088  0.36459  1.0000
  C   C50       1.0  0.66339  0.68794  0.47794  1.0000
  C   C51       1.0  0.56241  0.74829  0.42454  1.0000
  H   H8        1.0  0.64814  0.59431  0.34461  1.0000
  H   H9        1.0  0.67042  0.66971  0.27147  1.0000
  H   H10       1.0  0.67885  0.64912  0.57104  1.0000
  H   H11       1.0  0.70112  0.72454  0.49794  1.0000
  H   H12       1.0  0.54694  0.78712  0.33142  1.0000
  H   H13       1.0  0.52467  0.71171  0.40456  1.0000
  H   H14       1.0  0.54713  0.78702  0.50143  1.0000
  H   H15       1.0  0.76859  0.43624  0.40833  1.0000
  C   C52       1.0  0.75978  0.13522  0.12663  1.0000
  C   C53       1.0  0.70043  0.21573  0.01501  1.0000
  C   C54       1.0  0.74700  0.21688  0.90690  1.0000
  H   H16       1.0  0.76931  0.08012  0.07695  1.0000
  H   H17       1.0  0.82209  0.13653  0.17869  1.0000
  H   H18       1.0  0.63814  0.21441  0.96296  1.0000
  H   H19       1.0  0.69090  0.27085  0.06465  1.0000
  H   H20       1.0  0.80932  0.21818  0.95896  1.0000
  H   H21       1.0  0.75653  0.16177  0.85723  1.0000
  H   H22       1.0  0.70675  0.27150  0.83116  1.0000
  H   H23       1.0  0.33597  0.88651  0.34872  1.0000
  C   C55       1.0  0.32740  0.12658  0.30683  1.0000
  C   C56       1.0  0.25985  0.20691  0.34327  1.0000
  C   C57       1.0  0.16632  0.20526  0.29368  1.0000
  H   H24       1.0  0.33095  0.07135  0.35779  1.0000
  H   H25       1.0  0.30622  0.12620  0.19749  1.0000
  H   H26       1.0  0.28103  0.20728  0.45259  1.0000
  H   H27       1.0  0.25627  0.26215  0.29232  1.0000
  H   H28       1.0  0.14513  0.20489  0.18434  1.0000
  H   H29       1.0  0.16988  0.15004  0.34464  1.0000
  H   H30       1.0  0.12047  0.25978  0.31838  1.0000
  C   C58       1.0  0.85086  0.26372  0.11174  1.0000
  C   C59       1.0  0.83517  0.35628  0.06609  1.0000
  C   C60       1.0  0.75293  0.42035  0.09888  1.0000
  H   H31       1.0  0.86253  0.25469  0.22026  1.0000
  H   H32       1.0  0.79404  0.25343  0.05640  1.0000
  H   H33       1.0  0.89197  0.36656  0.12144  1.0000
  H   H34       1.0  0.82348  0.36533  0.95758  1.0000
  H   H35       1.0  0.69611  0.41007  0.04354  1.0000
  H   H36       1.0  0.76461  0.41132  0.20740  1.0000
  H   H37       1.0  0.74227  0.48316  0.06790  1.0000
  H   H38       1.0  0.75333  0.75064  0.40017  1.0000
  C   C61       1.0  0.10724  0.37969  0.58796  1.0000
  C   C62       1.0  0.15157  0.39689  0.48619  1.0000
  C   C63       1.0  0.25262  0.33680  0.53961  1.0000
  H   H39       1.0  0.11543  0.31572  0.59224  1.0000
  H   H40       1.0  0.13753  0.39124  0.68895  1.0000
  H   H41       1.0  0.12128  0.38533  0.38523  1.0000
  H   H42       1.0  0.14340  0.46085  0.48190  1.0000
  H   H43       1.0  0.28291  0.34835  0.64060  1.0000
  H   H44       1.0  0.26080  0.27283  0.54388  1.0000
  H   H45       1.0  0.28271  0.34846  0.47057  1.0000
  C   C64       1.0  0.31877  0.49354  0.70024  1.0000
  C   C65       1.0  0.34128  0.43652  0.58686  1.0000
  C   C66       1.0  0.44228  0.37625  0.64016  1.0000
  H   H46       1.0  0.33434  0.45468  0.79337  1.0000
  H   H47       1.0  0.35645  0.53021  0.72017  1.0000
  H   H48       1.0  0.30362  0.39985  0.56695  1.0000
  H   H49       1.0  0.32573  0.47535  0.49373  1.0000
  H   H50       1.0  0.47995  0.41291  0.66009  1.0000
  H   H51       1.0  0.45784  0.33739  0.73329  1.0000
  H   H52       1.0  0.45757  0.33756  0.56323  1.0000
  H   H53       1.0  0.43760  0.12859  0.12435  1.0000
  C   C67       1.0  0.35882  0.62976  0.72152  1.0000
  C   C68       1.0  0.38134  0.57273  0.60814  1.0000
  C   C69       1.0  0.48234  0.51246  0.66147  1.0000
  H   H54       1.0  0.37439  0.59091  0.81464  1.0000
  H   H55       1.0  0.39650  0.66643  0.74145  1.0000
  H   H56       1.0  0.34368  0.53607  0.58823  1.0000
  H   H57       1.0  0.36580  0.61156  0.51501  1.0000
  H   H58       1.0  0.52002  0.54912  0.68140  1.0000
  H   H59       1.0  0.49790  0.47361  0.75459  1.0000
  H   H60       1.0  0.49763  0.47376  0.58455  1.0000
  H   H61       1.0  0.18681  0.00244  0.40862  1.0000
  C   C70       1.0  0.93747  0.88089  0.49774  1.0000
  C   C71       1.0  0.89314  0.86368  0.34888  1.0000
  C   C72       1.0  0.79209  0.92379  0.29494  1.0000
  H   H62       1.0  0.92929  0.94486  0.49332  1.0000
  H   H63       1.0  0.90717  0.86936  0.56655  1.0000
  H   H64       1.0  0.92343  0.87523  0.28009  1.0000
  H   H65       1.0  0.90129  0.79973  0.35326  1.0000
  H   H66       1.0  0.76179  0.91225  0.36374  1.0000
  H   H67       1.0  0.78392  0.98775  0.29052  1.0000
  H   H68       1.0  0.76200  0.91211  0.19394  1.0000
  H   H69       1.0  0.57773  0.13139  0.06600  1.0000
  H   H70       1.0  0.60711  0.13200  0.96181  1.0000
  H   H71       1.0  0.46697  0.12919  0.02017  1.0000
  H   H72       1.0  0.87318  0.24623  0.82479  1.0000
  H   H73       1.0  0.29746  0.12583  0.93015  1.0000
  H   H74       1.0  0.16341  0.44099  0.61802  1.0000
