data_image0
_chemical_formula_structural       O21Cu6O3C96N3C30N3H3Br3H3Br3H3Br3H6Br3H3Br6H3Br3H6Br3H12Br3H12
_chemical_formula_sum              "O24 Cu6 C126 N6 H51 Br27"
_cell_length_a       17.0004
_cell_length_b       17.0383
_cell_length_c       14.4215
_cell_angle_alpha    89.9994
_cell_angle_beta     89.9931
_cell_angle_gamma    83.3554

_space_group_name_H-M_alt    "P 1"
_space_group_IT_number       1

loop_
  _space_group_symop_operation_xyz
  'x, y, z'

loop_
  _atom_site_type_symbol
  _atom_site_label
  _atom_site_symmetry_multiplicity
  _atom_site_fract_x
  _atom_site_fract_y
  _atom_site_fract_z
  _atom_site_occupancy
  O   O1        1.0  0.05799  0.02804  0.07712  1.0000
  O   O2        1.0  0.39132  0.36137  0.41045  1.0000
  O   O3        1.0  0.72466  0.69470  0.74378  1.0000
  O   O4        1.0  0.82817  0.05628  0.07712  1.0000
  O   O5        1.0  0.16150  0.38962  0.41045  1.0000
  O   O6        1.0  0.49483  0.72295  0.74378  1.0000
  O   O7        1.0  0.94171  0.92844  0.07711  1.0000
  O   O8        1.0  0.27505  0.26177  0.41044  1.0000
  O   O9        1.0  0.60838  0.59510  0.74378  1.0000
  O   O10       1.0  0.94444  0.15588  0.07712  1.0000
  O   O11       1.0  0.27778  0.48922  0.41046  1.0000
  O   O12       1.0  0.61111  0.82255  0.74379  1.0000
  O   O13       1.0  0.94173  0.92844  0.92289  1.0000
  O   O14       1.0  0.27506  0.26178  0.25622  1.0000
  O   O15       1.0  0.60839  0.59511  0.58955  1.0000
  O   O16       1.0  0.82818  0.05629  0.92289  1.0000
  O   O17       1.0  0.16152  0.38962  0.25623  1.0000
  O   O18       1.0  0.49485  0.72296  0.58956  1.0000
  O   O19       1.0  0.05800  0.02804  0.92289  1.0000
  O   O20       1.0  0.39134  0.36138  0.25623  1.0000
  O   O21       1.0  0.72467  0.69471  0.58956  1.0000
  Cu  Cu1       1.0  0.94310  0.04217  0.90881  1.0000
  Cu  Cu2       1.0  0.27643  0.37550  0.24214  1.0000
  Cu  Cu3       1.0  0.60976  0.70883  0.57548  1.0000
  Cu  Cu4       1.0  0.94308  0.04216  0.09120  1.0000
  Cu  Cu5       1.0  0.27641  0.37549  0.42453  1.0000
  Cu  Cu6       1.0  0.60974  0.70883  0.75786  1.0000
  O   O22       1.0  0.94446  0.15589  0.92290  1.0000
  O   O23       1.0  0.27779  0.48922  0.25623  1.0000
  O   O24       1.0  0.61113  0.82256  0.58957  1.0000
  C   C1        1.0  0.79863  0.05780  0.00001  1.0000
  C   C2        1.0  0.13196  0.39114  0.33334  1.0000
  C   C3        1.0  0.46529  0.72447  0.66667  1.0000
  C   C4        1.0  0.71057  0.06231  0.00001  1.0000
  C   C5        1.0  0.04391  0.39565  0.33334  1.0000
  C   C6        1.0  0.37724  0.72898  0.66667  1.0000
  C   C7        1.0  0.67385  0.99289  0.00000  1.0000
  C   C8        1.0  0.00718  0.32623  0.33333  1.0000
  C   C9        1.0  0.34051  0.65956  0.66667  1.0000
  C   C10       1.0  0.59111  0.99714  0.00001  1.0000
  C   C11       1.0  0.92444  0.33047  0.33334  1.0000
  C   C12       1.0  0.25778  0.66380  0.66667  1.0000
  C   C13       1.0  0.54510  0.07080  0.00001  1.0000
  C   C14       1.0  0.87844  0.40414  0.33335  1.0000
  C   C15       1.0  0.21177  0.73747  0.66668  1.0000
  C   C16       1.0  0.58183  0.14023  0.00002  1.0000
  C   C17       1.0  0.91517  0.47356  0.33335  1.0000
  C   C18       1.0  0.24850  0.80690  0.66669  1.0000
  C   C19       1.0  0.66457  0.13598  0.00002  1.0000
  C   C20       1.0  0.99790  0.46932  0.33335  1.0000
  C   C21       1.0  0.33124  0.80265  0.66669  1.0000
  C   C22       1.0  0.29507  0.08720  0.00002  1.0000
  C   C23       1.0  0.62840  0.42053  0.33335  1.0000
  C   C24       1.0  0.96173  0.75386  0.66669  1.0000
  C   C25       1.0  0.21233  0.09143  0.00002  1.0000
  C   C26       1.0  0.54566  0.42477  0.33335  1.0000
  C   C27       1.0  0.87899  0.75810  0.66668  1.0000
  C   C28       1.0  0.22161  0.94834  0.00000  1.0000
  C   C29       1.0  0.55494  0.28167  0.33334  1.0000
  C   C30       1.0  0.88827  0.61501  0.66667  1.0000
  C   C31       1.0  0.30434  0.94410  1.00000  1.0000
  C   C32       1.0  0.63768  0.27744  0.33333  1.0000
  C   C33       1.0  0.97101  0.61077  0.66666  1.0000
  C   C34       1.0  0.34107  0.01353  0.00001  1.0000
  C   C35       1.0  0.67440  0.34686  0.33335  1.0000
  C   C36       1.0  0.00774  0.68020  0.66668  1.0000
  C   C37       1.0  0.46053  0.07514  0.00002  1.0000
  C   C38       1.0  0.79387  0.40847  0.33335  1.0000
  C   C39       1.0  0.12720  0.74181  0.66668  1.0000
  C   C40       1.0  0.42564  0.00919  0.00001  1.0000
  C   C41       1.0  0.75897  0.34252  0.33335  1.0000
  C   C42       1.0  0.09230  0.67586  0.66668  1.0000
  C   C43       1.0  0.93924  0.89948  1.00000  1.0000
  C   C44       1.0  0.27257  0.23282  0.33333  1.0000
  C   C45       1.0  0.60590  0.56615  0.66666  1.0000
  C   C46       1.0  0.93182  0.81320  1.00000  1.0000
  C   C47       1.0  0.26516  0.14653  0.33333  1.0000
  C   C48       1.0  0.59849  0.47986  0.66666  1.0000
  C   C49       1.0  0.99988  0.75842  1.00000  1.0000
  C   C50       1.0  0.33321  0.09176  0.33333  1.0000
  C   C51       1.0  0.66655  0.42509  0.66666  1.0000
  C   C52       1.0  0.99291  0.67735  0.00000  1.0000
  C   C53       1.0  0.32624  0.01068  0.33334  1.0000
  C   C54       1.0  0.65958  0.34402  0.66667  1.0000
  C   C55       1.0  0.91788  0.65105  0.00001  1.0000
  C   C56       1.0  0.25122  0.98439  0.33334  1.0000
  C   C57       1.0  0.58455  0.31772  0.66668  1.0000
  C   C58       1.0  0.84982  0.70584  0.00001  1.0000
  C   C59       1.0  0.18315  0.03917  0.33335  1.0000
  C   C60       1.0  0.51649  0.37250  0.66668  1.0000
  C   C61       1.0  0.85679  0.78691  0.00001  1.0000
  C   C62       1.0  0.19012  0.12024  0.33334  1.0000
  C   C63       1.0  0.52346  0.45357  0.66668  1.0000
  C   C64       1.0  0.89326  0.40698  0.00002  1.0000
  C   C65       1.0  0.22659  0.74032  0.33335  1.0000
  C   C66       1.0  0.55992  0.07365  0.66669  1.0000
  C   C67       1.0  0.88629  0.32590  0.00002  1.0000
  C   C68       1.0  0.21962  0.65924  0.33335  1.0000
  C   C69       1.0  0.55296  0.99257  0.66669  1.0000
  C   C70       1.0  0.02938  0.29742  0.00001  1.0000
  C   C71       1.0  0.36272  0.63076  0.33335  1.0000
  C   C72       1.0  0.69605  0.96409  0.66668  1.0000
  C   C73       1.0  0.03635  0.37850  0.00001  1.0000
  C   C74       1.0  0.36968  0.71183  0.33334  1.0000
  C   C75       1.0  0.70301  0.04516  0.66667  1.0000
  C   C76       1.0  0.96828  0.43327  0.00002  1.0000
  C   C77       1.0  0.30162  0.76661  0.33335  1.0000
  C   C78       1.0  0.63495  0.09994  0.66668  1.0000
  C   C79       1.0  0.91076  0.56818  0.00001  1.0000
  C   C80       1.0  0.24409  0.90152  0.33335  1.0000
  C   C81       1.0  0.57742  0.23485  0.66668  1.0000
  C   C82       1.0  0.97541  0.51614  0.00002  1.0000
  C   C83       1.0  0.30875  0.84947  0.33335  1.0000
  C   C84       1.0  0.64208  0.18281  0.66668  1.0000
  C   C85       1.0  0.08755  0.02652  0.00001  1.0000
  C   C86       1.0  0.42088  0.35986  0.33334  1.0000
  C   C87       1.0  0.75421  0.69319  0.66667  1.0000
  C   C88       1.0  0.17560  0.02201  0.00001  1.0000
  C   C89       1.0  0.50893  0.35535  0.33334  1.0000
  C   C90       1.0  0.84227  0.68868  0.66668  1.0000
  C   C91       1.0  0.94694  0.18484  0.00001  1.0000
  C   C92       1.0  0.28027  0.51818  0.33335  1.0000
  C   C93       1.0  0.61360  0.85151  0.66668  1.0000
  C   C94       1.0  0.95435  0.27113  0.00002  1.0000
  C   C95       1.0  0.28768  0.60446  0.33335  1.0000
  C   C96       1.0  0.62102  0.93780  0.66669  1.0000
  N   N1        1.0  0.94311  0.04217  0.78053  1.0000
  N   N2        1.0  0.27645  0.37550  0.11386  1.0000
  N   N3        1.0  0.60978  0.70884  0.44720  1.0000
  C   C97       1.0  0.99563  0.98304  0.53090  1.0000
  C   C98       1.0  0.32896  0.31638  0.86423  1.0000
  C   C99       1.0  0.66229  0.64971  0.19756  1.0000
  C   C100      1.0  0.92302  0.97285  0.46910  1.0000
  C   C101      1.0  0.25635  0.30618  0.80243  1.0000
  C   C102      1.0  0.58968  0.63952  0.13577  1.0000
  C   C103      1.0  0.94310  0.04216  0.59137  1.0000
  C   C104      1.0  0.27643  0.37550  0.92470  1.0000
  C   C105      1.0  0.60976  0.70883  0.25804  1.0000
  C   C106      1.0  0.01569  0.05231  0.46907  1.0000
  C   C107      1.0  0.34902  0.38565  0.80241  1.0000
  C   C108      1.0  0.68235  0.71898  0.13574  1.0000
  C   C109      1.0  0.94308  0.04215  0.40865  1.0000
  C   C110      1.0  0.27642  0.37549  0.74198  1.0000
  C   C111      1.0  0.60975  0.70882  0.07531  1.0000
  C   C112      1.0  0.87045  0.03194  0.53093  1.0000
  C   C113      1.0  0.20378  0.36527  0.86426  1.0000
  C   C114      1.0  0.53711  0.69861  0.19760  1.0000
  C   C115      1.0  0.96316  0.11143  0.53091  1.0000
  C   C116      1.0  0.29650  0.44476  0.86424  1.0000
  C   C117      1.0  0.62983  0.77809  0.19758  1.0000
  C   C118      1.0  0.89050  0.10127  0.46914  1.0000
  C   C119      1.0  0.22384  0.43460  0.80247  1.0000
  C   C120      1.0  0.55717  0.76794  0.13581  1.0000
  C   C121      1.0  0.94310  0.04217  0.69663  1.0000
  C   C122      1.0  0.27644  0.37550  0.02996  1.0000
  C   C123      1.0  0.60977  0.70883  0.36330  1.0000
  C   C124      1.0  0.94307  0.04215  0.30339  1.0000
  C   C125      1.0  0.27640  0.37549  0.63672  1.0000
  C   C126      1.0  0.60973  0.70882  0.97005  1.0000
  N   N4        1.0  0.94306  0.04215  0.21948  1.0000
  N   N5        1.0  0.27640  0.37548  0.55281  1.0000
  N   N6        1.0  0.60973  0.70881  0.88615  1.0000
  H   H1        1.0  0.32496  0.14373  0.00004  1.0000
  H   H2        1.0  0.65829  0.47706  0.33337  1.0000
  H   H3        1.0  0.99162  0.81039  0.66670  1.0000
  Br  Br1       1.0  0.81637  0.18460  0.42423  1.0000
  Br  Br2       1.0  0.14970  0.51794  0.75756  1.0000
  Br  Br3       1.0  0.48304  0.85127  0.09089  1.0000
  H   H4        1.0  0.54437  0.20021  0.00003  1.0000
  H   H5        1.0  0.87770  0.53354  0.33337  1.0000
  H   H6        1.0  0.21103  0.86688  0.66670  1.0000
  Br  Br4       1.0  0.76809  0.01751  0.57602  1.0000
  Br  Br5       1.0  0.10142  0.35085  0.90936  1.0000
  Br  Br6       1.0  0.43475  0.68418  0.24269  1.0000
  H   H7        1.0  0.34180  0.88412  0.99999  1.0000
  H   H8        1.0  0.67513  0.21745  0.33332  1.0000
  H   H9        1.0  0.00846  0.55078  0.66666  1.0000
  Br  Br7       1.0  0.80088  0.48131  0.00004  1.0000
  Br  Br8       1.0  0.13422  0.81464  0.33337  1.0000
  Br  Br9       1.0  0.46755  0.14798  0.66671  1.0000
  H   H10       1.0  0.03650  0.53755  0.00003  1.0000
  H   H11       1.0  0.36983  0.87089  0.33337  1.0000
  H   H12       1.0  0.70317  0.20422  0.66670  1.0000
  H   H13       1.0  0.06098  0.77983  0.99999  1.0000
  H   H14       1.0  0.39431  0.11316  0.33332  1.0000
  H   H15       1.0  0.72764  0.44649  0.66665  1.0000
  Br  Br10      1.0  0.11801  0.06663  0.42377  1.0000
  Br  Br11      1.0  0.45134  0.39996  0.75711  1.0000
  Br  Br12      1.0  0.78468  0.73329  0.09044  1.0000
  H   H16       1.0  0.98017  0.16998  0.55808  1.0000
  H   H17       1.0  0.31350  0.50332  0.89141  1.0000
  H   H18       1.0  0.64684  0.83665  0.22475  1.0000
  Br  Br13      1.0  0.74799  0.67015  0.00003  1.0000
  Br  Br14      1.0  0.08133  0.00348  0.33337  1.0000
  Br  Br15      1.0  0.41466  0.33682  0.66670  1.0000
  Br  Br16      1.0  0.71441  0.23020  0.00004  1.0000
  Br  Br17      1.0  0.04774  0.56354  0.33337  1.0000
  Br  Br18      1.0  0.38108  0.89687  0.66670  1.0000
  H   H19       1.0  0.71130  0.93290  0.99999  1.0000
  H   H20       1.0  0.04463  0.26624  0.33332  1.0000
  H   H21       1.0  0.37797  0.59957  0.66666  1.0000
  Br  Br19      1.0  0.08528  0.60301  0.00000  1.0000
  Br  Br20      1.0  0.41861  0.93635  0.33334  1.0000
  Br  Br21      1.0  0.75195  0.26968  0.66667  1.0000
  H   H22       1.0  0.56121  0.94061  0.00000  1.0000
  H   H23       1.0  0.89455  0.27394  0.33334  1.0000
  H   H24       1.0  0.22788  0.60727  0.66667  1.0000
  H   H25       1.0  0.04000  0.93303  0.55801  1.0000
  H   H26       1.0  0.37333  0.26636  0.89135  1.0000
  H   H27       1.0  0.70667  0.59969  0.22468  1.0000
  Br  Br22      1.0  0.89470  0.87522  0.42386  1.0000
  Br  Br23      1.0  0.22803  0.20855  0.75719  1.0000
  Br  Br24      1.0  0.56137  0.54189  0.09052  1.0000
  H   H28       1.0  0.19170  0.89182  0.00000  1.0000
  H   H29       1.0  0.52503  0.22515  0.33334  1.0000
  H   H30       1.0  0.85837  0.55848  0.66667  1.0000
  H   H31       1.0  0.42306  0.13512  0.00002  1.0000
  H   H32       1.0  0.75640  0.46845  0.33335  1.0000
  H   H33       1.0  0.08973  0.80179  0.66669  1.0000
  H   H34       1.0  0.09745  0.39990  0.00000  1.0000
  H   H35       1.0  0.43078  0.73323  0.33334  1.0000
  H   H36       1.0  0.76411  0.06657  0.66667  1.0000
  H   H37       1.0  0.08480  0.25282  0.00001  1.0000
  H   H38       1.0  0.41813  0.58615  0.33334  1.0000
  H   H39       1.0  0.75146  0.91948  0.66668  1.0000
  Br  Br25      1.0  0.78446  0.29022  0.00002  1.0000
  Br  Br26      1.0  0.11779  0.62355  0.33335  1.0000
  Br  Br27      1.0  0.45113  0.95688  0.66668  1.0000
  H   H40       1.0  0.17487  0.15143  0.00002  1.0000
  H   H41       1.0  0.50820  0.48476  0.33335  1.0000
  H   H42       1.0  0.84154  0.81809  0.66668  1.0000
  H   H43       1.0  0.46310  0.94921  0.00001  1.0000
  H   H44       1.0  0.79643  0.28254  0.33335  1.0000
  H   H45       1.0  0.12977  0.61588  0.66668  1.0000
  H   H46       1.0  0.80137  0.83151  0.00001  1.0000
  H   H47       1.0  0.13470  0.16484  0.33334  1.0000
  H   H48       1.0  0.46803  0.49817  0.66668  1.0000
  H   H49       1.0  0.84967  0.54676  0.00002  1.0000
  H   H50       1.0  0.18300  0.88010  0.33335  1.0000
  H   H51       1.0  0.51633  0.21343  0.66668  1.0000
