data_image0
_chemical_formula_structural       O7Cu2OC20N2HOCH3OCH4OCH3OCH4OCH3OCH3OCH5O7Cu2OC20N2HOCH3OCH4OCH3OCH4OCH3OCH3OCH5
_chemical_formula_sum              "O30 Cu4 C54 N4 H52"
_cell_length_a       8.59734
_cell_length_b       10.6545
_cell_length_c       14.1779
_cell_angle_alpha    83.7182
_cell_angle_beta     103.955
_cell_angle_gamma    84.9104

_space_group_name_H-M_alt    "P 1"
_space_group_IT_number       1

loop_
  _space_group_symop_operation_xyz
  'x, y, z'

loop_
  _atom_site_type_symbol
  _atom_site_label
  _atom_site_symmetry_multiplicity
  _atom_site_fract_x
  _atom_site_fract_y
  _atom_site_fract_z
  _atom_site_occupancy
  O   O1        1.0  0.10328  0.17247  0.09375  1.0000
  O   O2        1.0  0.63882  0.19297  0.05549  1.0000
  O   O3        1.0  0.88173  0.99989  0.07550  1.0000
  O   O4        1.0  0.86037  0.36554  0.07374  1.0000
  O   O5        1.0  0.91419  0.97403  0.23716  1.0000
  O   O6        1.0  0.67128  0.16711  0.21715  1.0000
  O   O7        1.0  0.13574  0.14661  0.25541  1.0000
  Cu  Cu1       1.0  0.90647  0.15450  0.25104  1.0000
  Cu  Cu2       1.0  0.86809  0.18508  0.05986  1.0000
  O   O8        1.0  0.89283  0.33968  0.23540  1.0000
  C   C1        1.0  0.59558  0.17928  0.13142  1.0000
  C   C2        1.0  0.41837  0.17699  0.11683  1.0000
  C   C3        1.0  0.89639  0.94018  0.15620  1.0000
  C   C4        1.0  0.89170  0.80077  0.15581  1.0000
  C   C5        1.0  0.85632  0.82896  0.47956  1.0000
  C   C6        1.0  0.83644  0.77756  0.39126  1.0000
  C   C7        1.0  0.83203  0.64658  0.39089  1.0000
  C   C8        1.0  0.84750  0.56699  0.47884  1.0000
  C   C9        1.0  0.86739  0.61839  0.06715  1.0000
  C   C10       1.0  0.87180  0.74937  0.06750  1.0000
  C   C11       1.0  0.90275  0.59020  0.24339  1.0000
  C   C12       1.0  0.90717  0.72118  0.24376  1.0000
  C   C13       1.0  0.91822  0.51062  0.33134  1.0000
  C   C14       1.0  0.93812  0.56201  0.41964  1.0000
  C   C15       1.0  0.94253  0.69300  0.42001  1.0000
  C   C16       1.0  0.92705  0.77258  0.33206  1.0000
  C   C17       1.0  0.17898  0.16030  0.17948  1.0000
  C   C18       1.0  0.35618  0.16258  0.19407  1.0000
  C   C19       1.0  0.87817  0.39940  0.15470  1.0000
  C   C20       1.0  0.88286  0.53880  0.15509  1.0000
  N   N1        1.0  0.93349  0.13298  0.38551  1.0000
  N   N2        1.0  0.84109  0.20658  0.42539  1.0000
  H   H1        1.0  0.82384  0.84237  0.31965  1.0000
  O   O9        1.0  0.04787  0.04197  0.44348  1.0000
  C   C21       1.0  0.12937  0.97700  0.38466  1.0000
  H   H2        1.0  0.11736  0.03999  0.31230  1.0000
  H   H3        1.0  0.26248  0.95293  0.42460  1.0000
  H   H4        1.0  0.07419  0.88553  0.36951  1.0000
  O   O10       1.0  0.45420  0.15009  0.28633  1.0000
  C   C22       1.0  0.40755  0.24972  0.33523  1.0000
  H   H5        1.0  0.27598  0.28841  0.29984  1.0000
  H   H6        1.0  0.42200  0.21230  0.41571  1.0000
  H   H7        1.0  0.48697  0.32901  0.32969  1.0000
  H   H8        1.0  0.84389  0.46034  0.47854  1.0000
  O   O11       1.0  0.81246  0.59680  0.30504  1.0000
  C   C23       1.0  0.66477  0.65173  0.24017  1.0000
  H   H9        1.0  0.62702  0.74763  0.26169  1.0000
  H   H10       1.0  0.67974  0.66584  0.16211  1.0000
  H   H11       1.0  0.56811  0.58613  0.24425  1.0000
  O   O12       1.0  0.32006  0.18986  0.02462  1.0000
  C   C24       1.0  0.20580  0.29814  0.01010  1.0000
  H   H12       1.0  0.25432  0.36678  0.06325  1.0000
  H   H13       1.0  0.18244  0.34708  0.43153  1.0000
  H   H14       1.0  0.08824  0.26814  0.02380  1.0000
  H   H15       1.0  0.95869  0.73485  0.49191  1.0000
  O   O13       1.0  0.93114  0.89982  0.33252  1.0000
  C   C25       1.0  0.80430  0.95024  0.36957  1.0000
  H   H16       1.0  0.76608  0.87132  0.41703  1.0000
  H   H17       1.0  0.84696  0.02771  0.41569  1.0000
  H   H18       1.0  0.69728  0.99244  0.30596  1.0000
  O   O14       1.0  0.86043  0.95620  0.48002  1.0000
  C   C26       1.0  0.73359  0.00662  0.01708  1.0000
  H   H19       1.0  0.69536  0.92770  0.06453  1.0000
  H   H20       1.0  0.77628  0.08408  0.06320  1.0000
  H   H21       1.0  0.62659  0.04884  0.45347  1.0000
  O   O15       1.0  0.72700  0.29773  0.36734  1.0000
  C   C27       1.0  0.75946  0.41804  0.39442  1.0000
  H   H22       1.0  0.89286  0.41399  0.43297  1.0000
  H   H23       1.0  0.72854  0.49172  0.32601  1.0000
  H   H24       1.0  0.68323  0.44571  0.44617  1.0000
  H   H25       1.0  0.91462  0.40396  0.33103  1.0000
  H   H26       1.0  0.95070  0.49720  0.49124  1.0000
  O   O16       1.0  0.10328  0.17247  0.59375  1.0000
  O   O17       1.0  0.63882  0.19297  0.55549  1.0000
  O   O18       1.0  0.88173  0.99989  0.57550  1.0000
  O   O19       1.0  0.86037  0.36554  0.57374  1.0000
  O   O20       1.0  0.91419  0.97403  0.73716  1.0000
  O   O21       1.0  0.67128  0.16711  0.71715  1.0000
  O   O22       1.0  0.13574  0.14661  0.75541  1.0000
  Cu  Cu3       1.0  0.90647  0.15450  0.75104  1.0000
  Cu  Cu4       1.0  0.86809  0.18508  0.55986  1.0000
  O   O23       1.0  0.89283  0.33968  0.73540  1.0000
  C   C28       1.0  0.59558  0.17928  0.63142  1.0000
  C   C29       1.0  0.41837  0.17699  0.61683  1.0000
  C   C30       1.0  0.89639  0.94018  0.65620  1.0000
  C   C31       1.0  0.89170  0.80077  0.65581  1.0000
  C   C32       1.0  0.85632  0.82896  0.97956  1.0000
  C   C33       1.0  0.83644  0.77756  0.89126  1.0000
  C   C34       1.0  0.83203  0.64658  0.89089  1.0000
  C   C35       1.0  0.84750  0.56699  0.97884  1.0000
  C   C36       1.0  0.86739  0.61839  0.56715  1.0000
  C   C37       1.0  0.87180  0.74938  0.56750  1.0000
  C   C38       1.0  0.90275  0.59020  0.74339  1.0000
  C   C39       1.0  0.90717  0.72118  0.74376  1.0000
  C   C40       1.0  0.91822  0.51062  0.83134  1.0000
  C   C41       1.0  0.93812  0.56201  0.91964  1.0000
  C   C42       1.0  0.94253  0.69301  0.92001  1.0000
  C   C43       1.0  0.92705  0.77258  0.83206  1.0000
  C   C44       1.0  0.17898  0.16030  0.67948  1.0000
  C   C45       1.0  0.35618  0.16258  0.69407  1.0000
  C   C46       1.0  0.87817  0.39940  0.65470  1.0000
  C   C47       1.0  0.88286  0.53880  0.65509  1.0000
  N   N3        1.0  0.93349  0.13298  0.88551  1.0000
  N   N4        1.0  0.84109  0.20658  0.92539  1.0000
  H   H27       1.0  0.82384  0.84237  0.81965  1.0000
  O   O24       1.0  0.04787  0.04197  0.94348  1.0000
  C   C48       1.0  0.12937  0.97700  0.88466  1.0000
  H   H28       1.0  0.11736  0.03999  0.81230  1.0000
  H   H29       1.0  0.26248  0.95293  0.92460  1.0000
  H   H30       1.0  0.07419  0.88553  0.86951  1.0000
  O   O25       1.0  0.45420  0.15009  0.78633  1.0000
  C   C49       1.0  0.40755  0.24972  0.83523  1.0000
  H   H31       1.0  0.27598  0.28841  0.79984  1.0000
  H   H32       1.0  0.42200  0.21230  0.91571  1.0000
  H   H33       1.0  0.48697  0.32901  0.82969  1.0000
  H   H34       1.0  0.84389  0.46034  0.97854  1.0000
  O   O26       1.0  0.81246  0.59680  0.80504  1.0000
  C   C50       1.0  0.66477  0.65173  0.74017  1.0000
  H   H35       1.0  0.62702  0.74763  0.76168  1.0000
  H   H36       1.0  0.67974  0.66584  0.66211  1.0000
  H   H37       1.0  0.56811  0.58613  0.74425  1.0000
  O   O27       1.0  0.32006  0.18986  0.52462  1.0000
  C   C51       1.0  0.20580  0.29814  0.51010  1.0000
  H   H38       1.0  0.25432  0.36678  0.56325  1.0000
  H   H39       1.0  0.18244  0.34708  0.93153  1.0000
  H   H40       1.0  0.08824  0.26814  0.52380  1.0000
  H   H41       1.0  0.95869  0.73485  0.99191  1.0000
  O   O28       1.0  0.93114  0.89983  0.83252  1.0000
  C   C52       1.0  0.80430  0.95024  0.86957  1.0000
  H   H42       1.0  0.76608  0.87132  0.91703  1.0000
  H   H43       1.0  0.84696  0.02771  0.91569  1.0000
  H   H44       1.0  0.69728  0.99244  0.80596  1.0000
  O   O29       1.0  0.86043  0.95620  0.98002  1.0000
  C   C53       1.0  0.73359  0.00662  0.51708  1.0000
  H   H45       1.0  0.69536  0.92770  0.56453  1.0000
  H   H46       1.0  0.77628  0.08408  0.56320  1.0000
  H   H47       1.0  0.62659  0.04884  0.95347  1.0000
  O   O30       1.0  0.72700  0.29773  0.86734  1.0000
  C   C54       1.0  0.75946  0.41804  0.89442  1.0000
  H   H48       1.0  0.89286  0.41399  0.93297  1.0000
  H   H49       1.0  0.72854  0.49172  0.82601  1.0000
  H   H50       1.0  0.68323  0.44571  0.94617  1.0000
  H   H51       1.0  0.91462  0.40396  0.83103  1.0000
  H   H52       1.0  0.95070  0.49720  0.99124  1.0000
