data_image0
_chemical_formula_structural       O7Cu2OC14ONCOC10NC11O2C4N2C8H2BrH2Br4HBr4H4Br2HBrHBr
_chemical_formula_sum              "O12 Cu2 C48 N4 H11 Br13"
_cell_length_a       12.8379
_cell_length_b       23.5324
_cell_length_c       11.2955
_cell_angle_alpha    94.0646
_cell_angle_beta     85.4612
_cell_angle_gamma    88.8388

_space_group_name_H-M_alt    "P 1"
_space_group_IT_number       1

loop_
  _space_group_symop_operation_xyz
  'x, y, z'

loop_
  _atom_site_type_symbol
  _atom_site_label
  _atom_site_symmetry_multiplicity
  _atom_site_fract_x
  _atom_site_fract_y
  _atom_site_fract_z
  _atom_site_occupancy
  O   O1        1.0  0.38095  0.14451  0.90097  1.0000
  O   O2        1.0  0.07922  0.13720  0.90097  1.0000
  O   O3        1.0  0.23918  0.05845  0.90099  1.0000
  O   O4        1.0  0.22099  0.22327  0.90095  1.0000
  O   O5        1.0  0.22513  0.06535  0.09904  1.0000
  O   O6        1.0  0.06517  0.14411  0.09901  1.0000
  O   O7        1.0  0.36690  0.15142  0.09902  1.0000
  Cu  Cu1       1.0  0.21475  0.14839  0.11710  1.0000
  Cu  Cu2       1.0  0.23137  0.14023  0.88289  1.0000
  O   O8        1.0  0.20694  0.23017  0.09900  1.0000
  C   C1        1.0  0.03360  0.13819  0.99999  1.0000
  C   C2        1.0  0.91860  0.13082  0.99999  1.0000
  C   C3        1.0  0.67673  0.21936  0.99998  1.0000
  C   C4        1.0  0.56867  0.21244  0.99998  1.0000
  C   C5        1.0  0.59443  0.11007  1.00000  1.0000
  C   C6        1.0  0.70249  0.11699  1.00000  1.0000
  C   C7        1.0  0.74363  0.17163  0.99999  1.0000
  C   C8        1.0  0.85169  0.17855  0.99998  1.0000
  C   C9        1.0  0.87744  0.07618  0.00000  1.0000
  C   C10       1.0  0.76939  0.06927  0.00000  1.0000
  C   C11       1.0  0.23169  0.04066  0.00002  1.0000
  C   C12       1.0  0.23030  0.97736  0.00003  1.0000
  C   C13       1.0  0.31623  0.58319  0.99996  1.0000
  C   C14       1.0  0.31493  0.52371  0.99995  1.0000
  O   O9        1.0  0.39459  0.49154  0.99991  1.0000
  N   N1        1.0  0.21984  0.49563  0.99995  1.0000
  C   C15       1.0  0.12603  0.52703  0.99995  1.0000
  O   O10       1.0  0.04502  0.49768  0.99995  1.0000
  C   C16       1.0  0.12732  0.58650  0.99995  1.0000
  C   C17       1.0  0.22242  0.61458  0.99996  1.0000
  C   C18       1.0  0.41132  0.61127  0.99997  1.0000
  C   C19       1.0  0.41262  0.67074  0.99999  1.0000
  C   C20       1.0  0.31881  0.70213  0.99999  1.0000
  C   C21       1.0  0.22372  0.67405  0.99997  1.0000
  C   C22       1.0  0.03351  0.61789  0.99994  1.0000
  C   C23       1.0  0.03482  0.67737  0.99994  1.0000
  C   C24       1.0  0.12992  0.70545  0.99995  1.0000
  C   C25       1.0  0.13121  0.76491  0.99999  1.0000
  N   N2        1.0  0.22631  0.79299  0.99999  1.0000
  C   C26       1.0  0.32011  0.76160  0.99999  1.0000
  C   C27       1.0  0.12331  0.40213  0.99995  1.0000
  C   C28       1.0  0.12202  0.34265  0.99995  1.0000
  C   C29       1.0  0.31092  0.33935  0.99996  1.0000
  C   C30       1.0  0.31222  0.39882  0.99996  1.0000
  C   C31       1.0  0.21841  0.43021  0.99995  1.0000
  C   C32       1.0  0.32282  0.88650  0.00001  1.0000
  C   C33       1.0  0.32410  0.94597  0.00003  1.0000
  C   C34       1.0  0.13519  0.94927  0.00002  1.0000
  C   C35       1.0  0.13391  0.88980  0.00001  1.0000
  C   C36       1.0  0.22773  0.85842  0.00000  1.0000
  O   O11       1.0  0.05159  0.79712  0.00002  1.0000
  O   O12       1.0  0.40110  0.79096  0.99997  1.0000
  C   C37       1.0  0.41252  0.15044  0.99999  1.0000
  C   C38       1.0  0.52752  0.15780  0.99999  1.0000
  C   C39       1.0  0.21443  0.24796  0.99996  1.0000
  C   C40       1.0  0.21582  0.31126  0.99995  1.0000
  N   N3        1.0  0.20307  0.15414  0.28184  1.0000
  N   N4        1.0  0.24305  0.13448  0.71815  1.0000
  C   C41       1.0  0.32712  0.09310  0.53114  1.0000
  C   C42       1.0  0.31831  0.09745  0.65581  1.0000
  C   C43       1.0  0.17661  0.16717  0.65582  1.0000
  C   C44       1.0  0.18543  0.16282  0.53116  1.0000
  C   C45       1.0  0.26069  0.12579  0.46883  1.0000
  C   C46       1.0  0.26951  0.12145  0.34416  1.0000
  C   C47       1.0  0.12782  0.19117  0.34418  1.0000
  C   C48       1.0  0.11900  0.19551  0.46884  1.0000
  H   H1        1.0  0.93193  0.03732  1.00000  1.0000
  H   H2        1.0  0.33080  0.09129  0.29341  1.0000
  Br  Br1       1.0  0.43823  0.29673  0.99995  1.0000
  H   H3        1.0  0.40155  0.96883  0.00004  1.0000
  H   H4        1.0  0.05647  0.86694  0.00003  1.0000
  Br  Br2       1.0  0.53857  0.03592  0.00003  1.0000
  Br  Br3       1.0  0.42927  0.04285  0.44654  1.0000
  Br  Br4       1.0  0.71354  0.99511  0.00002  1.0000
  Br  Br5       1.0  0.40847  0.05308  0.74038  1.0000
  H   H5        1.0  0.11533  0.19732  0.70659  1.0000
  Br  Br6       1.0  0.01686  0.24577  0.55345  1.0000
  Br  Br7       1.0  0.90750  0.71997  0.99992  1.0000
  Br  Br8       1.0  0.99599  0.44472  0.99994  1.0000
  Br  Br9       1.0  0.00790  0.99189  0.00002  1.0000
  H   H6        1.0  0.07372  0.21779  0.29343  1.0000
  H   H7        1.0  0.88518  0.22304  0.99997  1.0000
  H   H8        1.0  0.95607  0.59504  0.99992  1.0000
  H   H9        1.0  0.71023  0.26385  0.99997  1.0000
  Br  Br10      1.0  0.53865  0.56868  0.99997  1.0000
  Br  Br11      1.0  0.54170  0.70884  0.99997  1.0000
  H   H10       1.0  0.04457  0.31980  0.99996  1.0000
  Br  Br12      1.0  0.45015  0.84391  0.00000  1.0000
  H   H11       1.0  0.51420  0.25130  0.99998  1.0000
  Br  Br13      1.0  0.44129  0.43692  0.99998  1.0000
