data_image0
_chemical_formula_structural       O7Zn2OC6ONCOC10NC11O2C14N2H3Cl7HClHClHClHClHClO7Zn2OC6ONCOC10NC11O2C14N2H3Cl7HClHClHClHClHCl
_chemical_formula_sum              "O24 Zn4 C84 N8 H16 Cl24"
_cell_length_a       8.55965
_cell_length_b       27.732
_cell_length_c       15.363
_cell_angle_alpha    84.3008
_cell_angle_beta     94.9132
_cell_angle_gamma    76.2107

_space_group_name_H-M_alt    "P 1"
_space_group_IT_number       1

loop_
  _space_group_symop_operation_xyz
  'x, y, z'

loop_
  _atom_site_type_symbol
  _atom_site_label
  _atom_site_symmetry_multiplicity
  _atom_site_fract_x
  _atom_site_fract_y
  _atom_site_fract_z
  _atom_site_occupancy
  O   O1        1.0  0.10530  0.98873  0.42680  1.0000
  O   O2        1.0  0.63948  0.01371  0.42679  1.0000
  O   O3        1.0  0.88686  0.93032  0.42681  1.0000
  O   O4        1.0  0.85792  0.07212  0.42678  1.0000
  O   O5        1.0  0.91731  0.92003  0.07325  1.0000
  O   O6        1.0  0.66993  0.00343  0.07322  1.0000
  O   O7        1.0  0.13575  0.97844  0.07323  1.0000
  Zn  Zn1       1.0  0.90767  0.98930  0.09648  1.0000
  Zn  Zn2       1.0  0.86756  0.00285  0.40355  1.0000
  O   O8        1.0  0.88837  0.06184  0.07321  1.0000
  C   C1        1.0  0.59513  0.01047  0.00001  1.0000
  C   C2        1.0  0.41761  0.01610  0.00001  1.0000
  C   C3        1.0  0.90148  0.90719  0.00003  1.0000
  C   C4        1.0  0.89965  0.85360  0.00004  1.0000
  C   C5        1.0  0.03431  0.51009  0.50000  1.0000
  C   C6        1.0  0.02752  0.30867  0.49998  1.0000
  O   O9        1.0  0.15066  0.27312  0.49995  1.0000
  N   N1        1.0  0.88084  0.29466  0.49998  1.0000
  C   C7        1.0  0.73584  0.33101  0.49998  1.0000
  O   O10       1.0  0.61092  0.31447  0.49997  1.0000
  C   C8        1.0  0.74263  0.53243  0.49998  1.0000
  C   C9        1.0  0.88933  0.54644  0.50000  1.0000
  C   C10       1.0  0.18100  0.52410  0.00001  1.0000
  C   C11       1.0  0.18269  0.57445  0.00002  1.0000
  C   C12       1.0  0.03771  0.61080  0.00001  1.0000
  C   C13       1.0  0.89102  0.59679  0.00000  1.0000
  C   C14       1.0  0.59763  0.56878  0.49997  1.0000
  C   C15       1.0  0.59934  0.61914  0.49997  1.0000
  C   C16       1.0  0.74604  0.63314  0.49998  1.0000
  C   C17       1.0  0.74773  0.68349  0.00001  1.0000
  N   N2        1.0  0.89441  0.69750  0.00001  1.0000
  C   C18       1.0  0.03940  0.66115  0.00001  1.0000
  C   C19       1.0  0.73229  0.22526  0.49998  1.0000
  C   C20       1.0  0.73059  0.17490  0.49998  1.0000
  C   C21       1.0  0.02227  0.15257  0.49998  1.0000
  C   C22       1.0  0.02397  0.20292  0.49999  1.0000
  C   C23       1.0  0.87897  0.23927  0.49998  1.0000
  C   C24       1.0  0.04296  0.76689  0.00003  1.0000
  C   C25       1.0  0.04464  0.81725  0.00004  1.0000
  C   C26       1.0  0.75295  0.83959  0.00003  1.0000
  C   C27       1.0  0.75127  0.78923  0.00003  1.0000
  C   C28       1.0  0.89628  0.75289  0.00002  1.0000
  O   O11       1.0  0.62465  0.71906  0.00004  1.0000
  O   O12       1.0  0.16430  0.67770  0.00000  1.0000
  C   C29       1.0  0.03262  0.45974  0.49999  1.0000
  C   C30       1.0  0.88593  0.44573  0.49998  1.0000
  C   C31       1.0  0.74094  0.48208  0.49998  1.0000
  C   C32       1.0  0.88424  0.39538  0.49998  1.0000
  C   C33       1.0  0.02922  0.35903  0.49998  1.0000
  C   C34       1.0  0.17591  0.37304  0.49998  1.0000
  C   C35       1.0  0.17760  0.42339  0.49999  1.0000
  C   C36       1.0  0.59426  0.46807  0.49998  1.0000
  C   C37       1.0  0.59257  0.41772  0.49997  1.0000
  C   C38       1.0  0.73756  0.38137  0.49997  1.0000
  C   C39       1.0  0.18010  0.98169  0.00002  1.0000
  C   C40       1.0  0.35762  0.97606  0.00001  1.0000
  C   C41       1.0  0.87375  0.08497  0.49999  1.0000
  C   C42       1.0  0.87558  0.13856  0.49998  1.0000
  N   N3        1.0  0.93507  0.98005  0.22815  1.0000
  N   N4        1.0  0.84018  0.01210  0.27188  1.0000
  H   H1        1.0  0.44207  0.93746  0.00002  1.0000
  H   H2        1.0  0.61114  0.16351  0.49998  1.0000
  H   H3        1.0  0.03194  0.94734  0.26576  1.0000
  Cl  Cl1       1.0  0.28721  0.07570  0.49998  1.0000
  Cl  Cl2       1.0  0.22526  0.72121  0.00003  1.0000
  Cl  Cl3       1.0  0.36712  0.59205  0.00000  1.0000
  Cl  Cl4       1.0  0.22907  0.83486  0.00005  1.0000
  Cl  Cl5       1.0  0.69063  0.06260  0.21382  1.0000
  Cl  Cl6       1.0  0.36329  0.47841  0.00001  1.0000
  Cl  Cl7       1.0  0.41704  0.66483  0.49996  1.0000
  H   H4        1.0  0.63182  0.77783  0.00004  1.0000
  Cl  Cl8       1.0  0.54998  0.27095  0.49997  1.0000
  H   H5        1.0  0.14033  0.12297  0.49998  1.0000
  Cl  Cl9       1.0  0.20839  0.22052  0.00000  1.0000
  H   H6        1.0  0.47311  0.40632  0.49997  1.0000
  Cl  Cl10      1.0  0.41320  0.55119  0.49995  1.0000
  H   H7        1.0  0.29706  0.43479  0.00000  1.0000
  Cl  Cl11      1.0  0.57069  0.88529  0.00003  1.0000
  H   H8        1.0  0.29396  0.34344  0.49999  1.0000
  Cl  Cl12      1.0  0.41197  0.51375  0.49997  1.0000
  O   O13       1.0  0.10530  0.98873  0.92680  1.0000
  O   O14       1.0  0.63948  0.01371  0.92679  1.0000
  O   O15       1.0  0.88686  0.93032  0.92681  1.0000
  O   O16       1.0  0.85792  0.07212  0.92678  1.0000
  O   O17       1.0  0.91731  0.92003  0.57325  1.0000
  O   O18       1.0  0.66993  0.00343  0.57322  1.0000
  O   O19       1.0  0.13575  0.97844  0.57323  1.0000
  Zn  Zn3       1.0  0.90767  0.98930  0.59648  1.0000
  Zn  Zn4       1.0  0.86756  0.00285  0.90355  1.0000
  O   O20       1.0  0.88837  0.06184  0.57321  1.0000
  C   C43       1.0  0.59513  0.01047  0.50001  1.0000
  C   C44       1.0  0.41761  0.01610  0.50001  1.0000
  C   C45       1.0  0.90148  0.90719  0.50003  1.0000
  C   C46       1.0  0.89965  0.85360  0.50004  1.0000
  C   C47       1.0  0.03431  0.51009  1.00000  1.0000
  C   C48       1.0  0.02752  0.30867  0.99998  1.0000
  O   O21       1.0  0.15066  0.27312  0.99995  1.0000
  N   N5        1.0  0.88084  0.29466  0.99998  1.0000
  C   C49       1.0  0.73584  0.33101  0.99998  1.0000
  O   O22       1.0  0.61092  0.31447  0.99997  1.0000
  C   C50       1.0  0.74263  0.53243  0.99998  1.0000
  C   C51       1.0  0.88933  0.54644  1.00000  1.0000
  C   C52       1.0  0.18100  0.52410  0.50001  1.0000
  C   C53       1.0  0.18269  0.57445  0.50002  1.0000
  C   C54       1.0  0.03771  0.61080  0.50001  1.0000
  C   C55       1.0  0.89102  0.59679  0.50000  1.0000
  C   C56       1.0  0.59763  0.56878  0.99997  1.0000
  C   C57       1.0  0.59934  0.61914  0.99997  1.0000
  C   C58       1.0  0.74604  0.63314  0.99998  1.0000
  C   C59       1.0  0.74773  0.68349  0.50001  1.0000
  N   N6        1.0  0.89441  0.69750  0.50001  1.0000
  C   C60       1.0  0.03940  0.66115  0.50001  1.0000
  C   C61       1.0  0.73229  0.22526  0.99998  1.0000
  C   C62       1.0  0.73059  0.17490  0.99998  1.0000
  C   C63       1.0  0.02227  0.15257  0.99998  1.0000
  C   C64       1.0  0.02397  0.20292  0.99999  1.0000
  C   C65       1.0  0.87897  0.23927  0.99998  1.0000
  C   C66       1.0  0.04296  0.76689  0.50003  1.0000
  C   C67       1.0  0.04464  0.81725  0.50004  1.0000
  C   C68       1.0  0.75295  0.83959  0.50003  1.0000
  C   C69       1.0  0.75127  0.78923  0.50003  1.0000
  C   C70       1.0  0.89628  0.75289  0.50002  1.0000
  O   O23       1.0  0.62466  0.71906  0.50004  1.0000
  O   O24       1.0  0.16430  0.67770  0.50000  1.0000
  C   C71       1.0  0.03262  0.45974  0.99999  1.0000
  C   C72       1.0  0.88593  0.44573  0.99998  1.0000
  C   C73       1.0  0.74094  0.48208  0.99998  1.0000
  C   C74       1.0  0.88424  0.39538  0.99998  1.0000
  C   C75       1.0  0.02922  0.35903  0.99998  1.0000
  C   C76       1.0  0.17591  0.37304  0.99998  1.0000
  C   C77       1.0  0.17760  0.42339  0.99999  1.0000
  C   C78       1.0  0.59426  0.46807  0.99998  1.0000
  C   C79       1.0  0.59257  0.41772  0.99997  1.0000
  C   C80       1.0  0.73756  0.38137  0.99997  1.0000
  C   C81       1.0  0.18010  0.98169  0.50002  1.0000
  C   C82       1.0  0.35762  0.97606  0.50001  1.0000
  C   C83       1.0  0.87375  0.08497  0.99999  1.0000
  C   C84       1.0  0.87558  0.13856  0.99998  1.0000
  N   N7        1.0  0.93507  0.98005  0.72815  1.0000
  N   N8        1.0  0.84018  0.01210  0.77188  1.0000
  H   H9        1.0  0.44207  0.93746  0.50002  1.0000
  H   H10       1.0  0.61114  0.16351  0.99998  1.0000
  H   H11       1.0  0.03194  0.94734  0.76576  1.0000
  Cl  Cl13      1.0  0.28721  0.07570  0.99998  1.0000
  Cl  Cl14      1.0  0.22526  0.72121  0.50003  1.0000
  Cl  Cl15      1.0  0.36712  0.59205  0.50000  1.0000
  Cl  Cl16      1.0  0.22907  0.83486  0.50005  1.0000
  Cl  Cl17      1.0  0.69063  0.06260  0.71382  1.0000
  Cl  Cl18      1.0  0.36329  0.47841  0.50001  1.0000
  Cl  Cl19      1.0  0.41704  0.66483  0.99996  1.0000
  H   H12       1.0  0.63182  0.77783  0.50004  1.0000
  Cl  Cl20      1.0  0.54998  0.27095  0.99997  1.0000
  H   H13       1.0  0.14033  0.12297  0.99998  1.0000
  Cl  Cl21      1.0  0.20839  0.22052  0.50000  1.0000
  H   H14       1.0  0.47311  0.40632  0.99997  1.0000
  Cl  Cl22      1.0  0.41320  0.55119  0.99995  1.0000
  H   H15       1.0  0.29706  0.43479  0.50000  1.0000
  Cl  Cl23      1.0  0.57069  0.88529  0.50003  1.0000
  H   H16       1.0  0.29396  0.34344  0.99999  1.0000
  Cl  Cl24      1.0  0.41197  0.51375  0.99997  1.0000
