data_image0
_chemical_formula_structural       O7Cu2OC2N2C28H2OCH2C2H9OCH2C2H5OCH2C2H5OCH2C2H7OCH2C2H5OCH2C2H5OCH2C2H5OCH2C2H7
_chemical_formula_sum              "O16 Cu2 C54 N2 H66"
_cell_length_a       15.9446
_cell_length_b       8.96543
_cell_length_c       10.4897
_cell_angle_alpha    90.0007
_cell_angle_beta     84.019
_cell_angle_gamma    90.0007

_space_group_name_H-M_alt    "P 1"
_space_group_IT_number       1

loop_
  _space_group_symop_operation_xyz
  'x, y, z'

loop_
  _atom_site_type_symbol
  _atom_site_label
  _atom_site_symmetry_multiplicity
  _atom_site_fract_x
  _atom_site_fract_y
  _atom_site_fract_z
  _atom_site_occupancy
  O   O1        1.0  0.11551  0.87612  0.16449  1.0000
  O   O2        1.0  0.87108  0.87608  0.18477  1.0000
  O   O3        1.0  0.99886  0.87611  0.98896  1.0000
  O   O4        1.0  0.98774  0.87609  0.36031  1.0000
  O   O5        1.0  0.99885  0.12419  0.98897  1.0000
  O   O6        1.0  0.87107  0.12416  0.18479  1.0000
  O   O7        1.0  0.11550  0.12420  0.16451  1.0000
  Cu  Cu1       1.0  0.99329  0.14683  0.17465  1.0000
  Cu  Cu2       1.0  0.99330  0.85345  0.17463  1.0000
  O   O8        1.0  0.98773  0.12417  0.36032  1.0000
  C   C1        1.0  0.83978  0.00012  0.18394  1.0000
  C   C2        1.0  0.74652  0.00010  0.18141  1.0000
  N   N1        1.0  0.99328  0.35318  0.17466  1.0000
  N   N2        1.0  0.99331  0.64710  0.17461  1.0000
  C   C3        1.0  0.53090  0.00014  0.05401  1.0000
  C   C4        1.0  0.47024  0.87782  0.11316  1.0000
  C   C5        1.0  0.57577  0.00012  0.17685  1.0000
  C   C6        1.0  0.47025  0.12240  0.11321  1.0000
  C   C7        1.0  0.41083  0.00014  0.17243  1.0000
  C   C8        1.0  0.51634  0.87770  0.23604  1.0000
  C   C9        1.0  0.51635  0.12240  0.23606  1.0000
  C   C10       1.0  0.45571  0.00005  0.29531  1.0000
  C   C11       1.0  0.67078  0.00010  0.17939  1.0000
  C   C12       1.0  0.31581  0.00015  0.16989  1.0000
  C   C13       1.0  0.14681  0.00016  0.16534  1.0000
  C   C14       1.0  0.24007  0.00016  0.16787  1.0000
  C   C15       1.0  0.99802  0.00015  0.94145  1.0000
  C   C16       1.0  0.99550  0.00014  0.79985  1.0000
  C   C17       1.0  0.93417  0.45047  0.26519  1.0000
  C   C18       1.0  0.01023  0.54990  0.28994  1.0000
  C   C19       1.0  0.91726  0.54988  0.14991  1.0000
  C   C20       1.0  0.06938  0.45041  0.19947  1.0000
  C   C21       1.0  0.97636  0.45039  0.05939  1.0000
  C   C22       1.0  0.05247  0.54977  0.08410  1.0000
  C   C23       1.0  0.91420  0.00012  0.73284  1.0000
  C   C24       1.0  0.95260  0.12244  0.64019  1.0000
  C   C25       1.0  0.95263  0.87786  0.64020  1.0000
  C   C26       1.0  0.03394  0.12257  0.70907  1.0000
  C   C27       1.0  0.03395  0.87787  0.70909  1.0000
  C   C28       1.0  0.07241  0.00022  0.61647  1.0000
  C   C29       1.0  0.98857  0.00013  0.40784  1.0000
  C   C30       1.0  0.99109  0.00012  0.54943  1.0000
  H   H1        1.0  0.44982  0.77441  0.06120  1.0000
  H   H2        1.0  0.91820  0.22585  0.60966  1.0000
  O   O9        1.0  0.02746  0.60213  0.40611  1.0000
  C   C31       1.0  0.10169  0.68862  0.39088  1.0000
  H   H3        1.0  0.14129  0.65464  0.29868  1.0000
  H   H4        1.0  0.08440  0.81170  0.38568  1.0000
  C   C32       1.0  0.10399  0.70447  0.61907  1.0000
  C   C33       1.0  0.15263  0.66273  0.50583  1.0000
  H   H5        1.0  0.13542  0.68851  0.68998  1.0000
  H   H6        1.0  0.05398  0.64621  0.62933  1.0000
  H   H7        1.0  0.08959  0.80703  0.61472  1.0000
  H   H8        1.0  0.16702  0.56017  0.51018  1.0000
  H   H9        1.0  0.20264  0.72098  0.49558  1.0000
  H   H10       1.0  0.42317  0.99997  0.39737  1.0000
  H   H11       1.0  0.53664  0.77418  0.28795  1.0000
  H   H12       1.0  0.96201  0.40665  0.96196  1.0000
  H   H13       1.0  0.91823  0.77443  0.60971  1.0000
  O   O10       1.0  0.54072  0.24591  0.29782  1.0000
  C   C34       1.0  0.51748  0.37463  0.23274  1.0000
  H   H14       1.0  0.51009  0.34533  0.12875  1.0000
  H   H15       1.0  0.45513  0.41926  0.28099  1.0000
  C   C35       1.0  0.59537  0.53052  0.36468  1.0000
  C   C36       1.0  0.58630  0.49453  0.23695  1.0000
  H   H16       1.0  0.63782  0.60448  0.36728  1.0000
  H   H17       1.0  0.61103  0.44380  0.40852  1.0000
  H   H18       1.0  0.54340  0.56770  0.40487  1.0000
  H   H19       1.0  0.63826  0.45733  0.19677  1.0000
  H   H20       1.0  0.57065  0.58125  0.19310  1.0000
  O   O11       1.0  0.15217  0.00020  0.55620  1.0000
  C   C37       1.0  0.14895  0.99899  0.42239  1.0000
  H   H21       1.0  0.08586  0.95136  0.39991  1.0000
  H   H22       1.0  0.15604  0.11771  0.38384  1.0000
  C   C38       1.0  0.29859  0.96014  0.38628  1.0000
  C   C39       1.0  0.22110  0.90163  0.35867  1.0000
  H   H23       1.0  0.34310  0.90009  0.34698  1.0000
  H   H24       1.0  0.30076  0.96097  0.47643  1.0000
  H   H25       1.0  0.30449  0.05908  0.35415  1.0000
  H   H26       1.0  0.21520  0.80271  0.39082  1.0000
  H   H27       1.0  0.21893  0.90079  0.26853  1.0000
  O   O12       1.0  0.84052  0.60175  0.12488  1.0000
  C   C40       1.0  0.78644  0.48035  0.10858  1.0000
  H   H28       1.0  0.82566  0.37711  0.07985  1.0000
  H   H29       1.0  0.74557  0.45790  0.20238  1.0000
  C   C41       1.0  0.68142  0.64436  0.03818  1.0000
  C   C42       1.0  0.72960  0.51755  0.00288  1.0000
  H   H30       1.0  0.64635  0.66731  0.97298  1.0000
  H   H31       1.0  0.71785  0.72615  0.04917  1.0000
  H   H32       1.0  0.64737  0.62563  0.11635  1.0000
  H   H33       1.0  0.76365  0.53629  0.92472  1.0000
  H   H34       1.0  0.69317  0.43577  0.99188  1.0000
  H   H35       1.0  0.56362  0.99999  0.95206  1.0000
  H   H36       1.0  0.10252  0.59310  0.00752  1.0000
  O   O13       1.0  0.44602  0.24573  0.05104  1.0000
  C   C43       1.0  0.48465  0.24524  0.92386  1.0000
  H   H37       1.0  0.54401  0.17364  0.91774  1.0000
  H   H38       1.0  0.43900  0.19750  0.85771  1.0000
  C   C44       1.0  0.43540  0.49387  0.89007  1.0000
  C   C45       1.0  0.50831  0.40594  0.88255  1.0000
  H   H39       1.0  0.44999  0.59300  0.86458  1.0000
  H   H40       1.0  0.40937  0.49420  0.97575  1.0000
  H   H41       1.0  0.39736  0.45407  0.83494  1.0000
  H   H42       1.0  0.54634  0.44573  0.93769  1.0000
  H   H43       1.0  0.53435  0.40562  0.79688  1.0000
  O   O14       1.0  0.87470  0.39826  0.35666  1.0000
  C   C46       1.0  0.91366  0.30964  0.44463  1.0000
  H   H44       1.0  0.97641  0.26599  0.39703  1.0000
  H   H45       1.0  0.92516  0.37968  0.53183  1.0000
  C   C47       1.0  0.77883  0.23083  0.54567  1.0000
  C   C48       1.0  0.85591  0.17720  0.48720  1.0000
  H   H46       1.0  0.74321  0.14913  0.57194  1.0000
  H   H47       1.0  0.75258  0.29053  0.48641  1.0000
  H   H48       1.0  0.78843  0.28919  0.61834  1.0000
  H   H49       1.0  0.84631  0.11885  0.41453  1.0000
  H   H50       1.0  0.88215  0.11748  0.54645  1.0000
  O   O15       1.0  0.83444  0.00051  0.79313  1.0000
  C   C49       1.0  0.79188  0.12969  0.75821  1.0000
  H   H51       1.0  0.83990  0.21939  0.72483  1.0000
  H   H52       1.0  0.75214  0.10178  0.67714  1.0000
  C   C50       1.0  0.67524  0.07718  0.91570  1.0000
  C   C51       1.0  0.73422  0.18736  0.87470  1.0000
  H   H53       1.0  0.63967  0.11275  0.98755  1.0000
  H   H54       1.0  0.70392  0.99015  0.93922  1.0000
  H   H55       1.0  0.64214  0.05393  0.84813  1.0000
  H   H56       1.0  0.76733  0.21059  0.94227  1.0000
  H   H57       1.0  0.70555  0.27440  0.85120  1.0000
  O   O16       1.0  0.07498  0.75462  0.74578  1.0000
  C   C52       1.0  0.07742  0.75708  0.87973  1.0000
  H   H58       1.0  0.07011  0.87679  0.91583  1.0000
  H   H59       1.0  0.02379  0.68606  0.92766  1.0000
  C   C53       1.0  0.17136  0.54697  0.86822  1.0000
  C   C54       1.0  0.16240  0.69400  0.91255  1.0000
  H   H60       1.0  0.22378  0.50805  0.88846  1.0000
  H   H61       1.0  0.16972  0.54531  0.77797  1.0000
  H   H62       1.0  0.12667  0.48781  0.90816  1.0000
  H   H63       1.0  0.20709  0.75316  0.87260  1.0000
  H   H64       1.0  0.16406  0.69567  0.00280  1.0000
  H   H65       1.0  0.13369  0.40690  0.22050  1.0000
  H   H66       1.0  0.06830  0.22610  0.73943  1.0000
