data_image0
_chemical_formula_structural       O14Cu4O2C68N4C20H2C2H6C2H6C2H6C2H6C2H6C2H16C2H6C2H8C2H6C2H6C2H6C2H12C2H8C2H6C2H10
_chemical_formula_sum              "O16 Cu4 C118 N4 H116"
_cell_length_a       14.9715
_cell_length_b       19.2889
_cell_length_c       13.4483
_cell_angle_alpha    89.9882
_cell_angle_beta     89.9938
_cell_angle_gamma    83.3744

_space_group_name_H-M_alt    "P 1"
_space_group_IT_number       1

loop_
  _space_group_symop_operation_xyz
  'x, y, z'

loop_
  _atom_site_type_symbol
  _atom_site_label
  _atom_site_symmetry_multiplicity
  _atom_site_fract_x
  _atom_site_fract_y
  _atom_site_fract_z
  _atom_site_occupancy
  O   O1        1.0  0.18646  0.09051  0.91731  1.0000
  O   O2        1.0  0.68646  0.59050  0.41731  1.0000
  O   O3        1.0  0.92600  0.10135  0.91730  1.0000
  O   O4        1.0  0.42600  0.60135  0.41730  1.0000
  O   O5        1.0  0.06376  0.99482  0.91733  1.0000
  O   O6        1.0  0.56376  0.49482  0.41733  1.0000
  O   O7        1.0  0.04870  0.19703  0.91729  1.0000
  O   O8        1.0  0.54870  0.69703  0.41729  1.0000
  O   O9        1.0  0.06374  0.99481  0.08271  1.0000
  O   O10       1.0  0.56374  0.49481  0.58271  1.0000
  O   O11       1.0  0.92598  0.10134  0.08269  1.0000
  O   O12       1.0  0.42598  0.60134  0.58269  1.0000
  O   O13       1.0  0.18644  0.09050  0.08269  1.0000
  O   O14       1.0  0.68644  0.59050  0.58269  1.0000
  Cu  Cu1       1.0  0.05621  0.09592  0.09779  1.0000
  Cu  Cu2       1.0  0.55621  0.59592  0.59779  1.0000
  Cu  Cu3       1.0  0.05623  0.09593  0.90220  1.0000
  Cu  Cu4       1.0  0.55623  0.59593  0.40220  1.0000
  O   O15       1.0  0.04869  0.19703  0.08267  1.0000
  O   O16       1.0  0.54869  0.69703  0.58267  1.0000
  C   C1        1.0  0.89267  0.10086  0.99999  1.0000
  C   C2        1.0  0.39267  0.60086  0.49999  1.0000
  C   C3        1.0  0.79338  0.09941  0.99999  1.0000
  C   C4        1.0  0.29338  0.59941  0.49999  1.0000
  C   C5        1.0  0.74673  0.09872  0.09015  1.0000
  C   C6        1.0  0.24673  0.59872  0.59015  1.0000
  C   C7        1.0  0.65344  0.09735  0.09015  1.0000
  C   C8        1.0  0.15344  0.59735  0.59015  1.0000
  C   C9        1.0  0.60680  0.09666  0.99999  1.0000
  C   C10       1.0  0.10680  0.59666  0.49999  1.0000
  C   C11       1.0  0.65346  0.09735  0.90984  1.0000
  C   C12       1.0  0.15346  0.59735  0.40984  1.0000
  C   C13       1.0  0.74675  0.09872  0.90983  1.0000
  C   C14       1.0  0.24675  0.59872  0.40984  1.0000
  C   C15       1.0  0.45901  0.09449  0.90984  1.0000
  C   C16       1.0  0.95901  0.59449  0.40984  1.0000
  C   C17       1.0  0.36571  0.09312  0.90984  1.0000
  C   C18       1.0  0.86571  0.59313  0.40984  1.0000
  C   C19       1.0  0.36570  0.09312  0.09015  1.0000
  C   C20       1.0  0.86570  0.59312  0.59015  1.0000
  C   C21       1.0  0.45899  0.09449  0.09015  1.0000
  C   C22       1.0  0.95899  0.59449  0.59015  1.0000
  C   C23       1.0  0.50564  0.09518  0.99999  1.0000
  C   C24       1.0  0.00564  0.59518  0.49999  1.0000
  C   C25       1.0  0.06326  0.96894  0.00002  1.0000
  C   C26       1.0  0.56326  0.46894  0.50002  1.0000
  C   C27       1.0  0.06181  0.89183  0.00003  1.0000
  C   C28       1.0  0.56181  0.39183  0.50003  1.0000
  C   C29       1.0  0.14264  0.84740  0.00004  1.0000
  C   C30       1.0  0.64264  0.34740  0.50004  1.0000
  C   C31       1.0  0.14127  0.77495  0.00002  1.0000
  C   C32       1.0  0.64127  0.27495  0.50002  1.0000
  C   C33       1.0  0.05907  0.74693  0.00002  1.0000
  C   C34       1.0  0.55907  0.24693  0.50002  1.0000
  C   C35       1.0  0.97823  0.79137  0.00001  1.0000
  C   C36       1.0  0.47823  0.29137  0.50001  1.0000
  C   C37       1.0  0.97960  0.86382  0.00001  1.0000
  C   C38       1.0  0.47960  0.36382  0.50001  1.0000
  C   C39       1.0  0.99445  0.63843  0.05795  1.0000
  C   C40       1.0  0.49445  0.13843  0.55795  1.0000
  C   C41       1.0  0.99308  0.56598  0.05795  1.0000
  C   C42       1.0  0.49308  0.06598  0.55795  1.0000
  C   C43       1.0  0.05485  0.52347  1.00000  1.0000
  C   C44       1.0  0.55485  0.02347  0.50000  1.0000
  C   C45       1.0  0.11800  0.55342  0.94206  1.0000
  C   C46       1.0  0.61800  0.05342  0.44206  1.0000
  C   C47       1.0  0.11936  0.62587  0.94206  1.0000
  C   C48       1.0  0.61936  0.12587  0.44206  1.0000
  C   C49       1.0  0.05758  0.66837  0.00001  1.0000
  C   C50       1.0  0.55758  0.16837  0.50001  1.0000
  C   C51       1.0  0.13420  0.40048  0.99998  1.0000
  C   C52       1.0  0.63420  0.90048  0.49998  1.0000
  C   C53       1.0  0.13283  0.32803  0.99996  1.0000
  C   C54       1.0  0.63283  0.82803  0.49996  1.0000
  C   C55       1.0  0.96979  0.34445  0.99996  1.0000
  C   C56       1.0  0.46979  0.84445  0.49996  1.0000
  C   C57       1.0  0.97117  0.41691  0.99997  1.0000
  C   C58       1.0  0.47117  0.91691  0.49997  1.0000
  C   C59       1.0  0.05337  0.44491  0.99999  1.0000
  C   C60       1.0  0.55337  0.94491  0.49999  1.0000
  C   C61       1.0  0.21977  0.09099  1.00000  1.0000
  C   C62       1.0  0.71977  0.59099  0.50000  1.0000
  C   C63       1.0  0.31906  0.09244  0.99999  1.0000
  C   C64       1.0  0.81906  0.59244  0.49999  1.0000
  C   C65       1.0  0.04918  0.22291  0.99997  1.0000
  C   C66       1.0  0.54918  0.72291  0.49997  1.0000
  C   C67       1.0  0.05063  0.30001  0.99996  1.0000
  C   C68       1.0  0.55063  0.80002  0.49996  1.0000
  N   N1        1.0  0.05620  0.09591  0.23536  1.0000
  N   N2        1.0  0.55620  0.59591  0.73535  1.0000
  N   N3        1.0  0.05625  0.09593  0.76464  1.0000
  N   N4        1.0  0.55625  0.59593  0.26464  1.0000
  C   C69       1.0  0.11722  0.04876  0.28741  1.0000
  C   C70       1.0  0.61722  0.54876  0.78741  1.0000
  C   C71       1.0  0.11723  0.04876  0.39151  1.0000
  C   C72       1.0  0.61723  0.54876  0.89151  1.0000
  C   C73       1.0  0.05622  0.09592  0.44356  1.0000
  C   C74       1.0  0.55622  0.59592  0.94356  1.0000
  C   C75       1.0  0.99520  0.14307  0.39150  1.0000
  C   C76       1.0  0.49520  0.64307  0.89150  1.0000
  C   C77       1.0  0.99519  0.14307  0.28740  1.0000
  C   C78       1.0  0.49519  0.64307  0.78740  1.0000
  C   C79       1.0  0.99522  0.14307  0.60848  1.0000
  C   C80       1.0  0.49522  0.64307  0.10848  1.0000
  C   C81       1.0  0.99523  0.14308  0.71259  1.0000
  C   C82       1.0  0.49523  0.64308  0.21259  1.0000
  C   C83       1.0  0.11726  0.04877  0.71259  1.0000
  C   C84       1.0  0.61726  0.54877  0.21259  1.0000
  C   C85       1.0  0.11725  0.04877  0.60849  1.0000
  C   C86       1.0  0.61725  0.54877  0.10849  1.0000
  C   C87       1.0  0.05623  0.09592  0.55644  1.0000
  C   C88       1.0  0.55623  0.59592  0.05644  1.0000
  H   H1        1.0  0.78473  0.09928  0.83642  1.0000
  H   H2        1.0  0.28473  0.59928  0.33642  1.0000
  C   C89       1.0  0.92806  0.19492  0.44875  1.0000
  C   C90       1.0  0.42806  0.69492  0.94875  1.0000
  H   H3        1.0  0.89171  0.22299  0.40284  1.0000
  H   H4        1.0  0.39171  0.72299  0.90284  1.0000
  H   H5        1.0  0.96009  0.22388  0.48936  1.0000
  H   H6        1.0  0.46009  0.72388  0.98936  1.0000
  H   H7        1.0  0.89094  0.16986  0.48936  1.0000
  H   H8        1.0  0.39094  0.66986  0.98936  1.0000
  C   C91       1.0  0.18439  0.99690  0.76984  1.0000
  C   C92       1.0  0.68439  0.49690  0.26984  1.0000
  H   H9        1.0  0.22073  0.96882  0.72393  1.0000
  H   H10       1.0  0.72073  0.46882  0.22393  1.0000
  H   H11       1.0  0.15234  0.96794  0.81046  1.0000
  H   H12       1.0  0.65234  0.46794  0.31046  1.0000
  H   H13       1.0  0.22152  0.02194  0.81043  1.0000
  H   H14       1.0  0.72152  0.52194  0.31043  1.0000
  C   C93       1.0  0.92812  0.19494  0.76985  1.0000
  C   C94       1.0  0.42812  0.69494  0.26985  1.0000
  H   H15       1.0  0.93688  0.18819  0.83930  1.0000
  H   H16       1.0  0.43688  0.68819  0.33930  1.0000
  H   H17       1.0  0.86846  0.18732  0.75281  1.0000
  H   H18       1.0  0.36846  0.68732  0.25281  1.0000
  H   H19       1.0  0.93764  0.24131  0.75277  1.0000
  H   H20       1.0  0.43764  0.74131  0.25277  1.0000
  C   C95       1.0  0.79803  0.09947  0.18931  1.0000
  C   C96       1.0  0.29803  0.59947  0.68931  1.0000
  H   H21       1.0  0.86027  0.10039  0.17640  1.0000
  H   H22       1.0  0.36027  0.60039  0.67640  1.0000
  H   H23       1.0  0.78973  0.05877  0.22636  1.0000
  H   H24       1.0  0.28973  0.55877  0.72636  1.0000
  H   H25       1.0  0.77575  0.13973  0.22634  1.0000
  H   H26       1.0  0.27575  0.63973  0.72634  1.0000
  C   C97       1.0  0.22463  0.43129  0.99999  1.0000
  C   C98       1.0  0.72463  0.93129  0.49999  1.0000
  H   H27       1.0  0.27257  0.39445  0.99998  1.0000
  H   H28       1.0  0.77257  0.89444  0.49998  1.0000
  H   H29       1.0  0.22854  0.45920  0.05767  1.0000
  H   H30       1.0  0.72854  0.95920  0.55767  1.0000
  H   H31       1.0  0.22855  0.45922  0.94232  1.0000
  H   H32       1.0  0.72855  0.95922  0.44232  1.0000
  C   C99       1.0  0.92807  0.19493  0.23014  1.0000
  C   C100      1.0  0.42807  0.69493  0.73015  1.0000
  H   H33       1.0  0.89174  0.22302  0.27605  1.0000
  H   H34       1.0  0.39174  0.72302  0.77605  1.0000
  H   H35       1.0  0.89094  0.16990  0.18955  1.0000
  H   H36       1.0  0.39094  0.66990  0.68955  1.0000
  H   H37       1.0  0.96013  0.22389  0.18952  1.0000
  H   H38       1.0  0.46013  0.72389  0.68952  1.0000
  H   H39       1.0  0.49696  0.09505  0.16356  1.0000
  H   H40       1.0  0.99696  0.59505  0.66356  1.0000
  H   H41       1.0  0.90535  0.45308  0.99997  1.0000
  H   H42       1.0  0.40535  0.95308  0.49997  1.0000
  H   H43       1.0  0.61546  0.09677  0.16356  1.0000
  H   H44       1.0  0.11546  0.59677  0.66356  1.0000
  H   H45       1.0  0.32771  0.09256  0.16356  1.0000
  H   H46       1.0  0.82772  0.59256  0.66356  1.0000
  H   H47       1.0  0.20958  0.87020  0.00005  1.0000
  H   H48       1.0  0.70958  0.37020  0.50005  1.0000
  C   C101      1.0  0.31441  0.09239  0.81068  1.0000
  C   C102      1.0  0.81441  0.59239  0.31068  1.0000
  H   H49       1.0  0.35555  0.09299  0.75698  1.0000
  H   H50       1.0  0.85555  0.59299  0.25698  1.0000
  H   H51       1.0  0.27104  0.13234  0.80694  1.0000
  H   H52       1.0  0.77104  0.63234  0.30694  1.0000
  H   H53       1.0  0.28499  0.05138  0.80693  1.0000
  H   H54       1.0  0.78499  0.55138  0.30693  1.0000
  C   C103      1.0  0.51032  0.09525  0.81067  1.0000
  C   C104      1.0  0.01032  0.59525  0.31067  1.0000
  H   H55       1.0  0.46919  0.09466  0.75698  1.0000
  H   H56       1.0  0.96919  0.59466  0.25698  1.0000
  H   H57       1.0  0.55371  0.05532  0.80692  1.0000
  H   H58       1.0  0.05371  0.55532  0.30692  1.0000
  H   H59       1.0  0.53972  0.13627  0.80692  1.0000
  H   H60       1.0  0.03972  0.63627  0.30692  1.0000
  H   H61       1.0  0.20710  0.73876  0.00002  1.0000
  H   H62       1.0  0.70710  0.23876  0.50002  1.0000
  C   C105      1.0  0.18881  0.65881  0.87833  1.0000
  C   C106      1.0  0.68881  0.15881  0.37833  1.0000
  H   H63       1.0  0.22540  0.62312  0.84380  1.0000
  H   H64       1.0  0.72540  0.12312  0.34380  1.0000
  H   H65       1.0  0.22545  0.68343  0.92010  1.0000
  H   H66       1.0  0.72545  0.18343  0.42010  1.0000
  H   H67       1.0  0.15841  0.69019  0.83173  1.0000
  H   H68       1.0  0.65841  0.19019  0.33173  1.0000
  C   C107      1.0  0.18594  0.50667  0.87830  1.0000
  C   C108      1.0  0.68594  0.00667  0.37830  1.0000
  H   H69       1.0  0.17607  0.45923  0.88658  1.0000
  H   H70       1.0  0.67607  0.95923  0.38658  1.0000
  H   H71       1.0  0.24534  0.51257  0.89867  1.0000
  H   H72       1.0  0.74534  0.01257  0.39867  1.0000
  H   H73       1.0  0.17830  0.51935  0.81031  1.0000
  H   H74       1.0  0.67830  0.01935  0.31031  1.0000
  C   C109      1.0  0.18433  0.99689  0.23016  1.0000
  C   C110      1.0  0.68433  0.49689  0.73016  1.0000
  H   H75       1.0  0.22066  0.96881  0.27607  1.0000
  H   H76       1.0  0.72066  0.46881  0.77607  1.0000
  H   H77       1.0  0.22146  0.02192  0.18953  1.0000
  H   H78       1.0  0.72146  0.52192  0.68953  1.0000
  H   H79       1.0  0.15226  0.96793  0.18957  1.0000
  H   H80       1.0  0.65226  0.46793  0.68957  1.0000
  C   C111      1.0  0.22175  0.27915  0.99997  1.0000
  C   C112      1.0  0.72175  0.77915  0.49997  1.0000
  H   H81       1.0  0.27090  0.30621  0.99999  1.0000
  H   H82       1.0  0.77090  0.80621  0.49999  1.0000
  H   H83       1.0  0.22462  0.25055  0.94230  1.0000
  H   H84       1.0  0.72462  0.75055  0.44230  1.0000
  H   H85       1.0  0.22459  0.25053  0.05765  1.0000
  H   H86       1.0  0.72459  0.75053  0.55765  1.0000
  H   H87       1.0  0.90287  0.32165  0.99995  1.0000
  H   H88       1.0  0.40287  0.82165  0.49995  1.0000
  H   H89       1.0  0.61548  0.09679  0.83643  1.0000
  H   H90       1.0  0.11548  0.59679  0.33643  1.0000
  H   H91       1.0  0.94166  0.54161  0.10512  1.0000
  H   H92       1.0  0.44166  0.04161  0.60512  1.0000
  C   C113      1.0  0.92650  0.68519  0.12170  1.0000
  C   C114      1.0  0.42650  0.18519  0.62170  1.0000
  H   H93       1.0  0.88871  0.65698  0.15621  1.0000
  H   H94       1.0  0.38871  0.15698  0.65621  1.0000
  H   H95       1.0  0.89092  0.71710  0.07993  1.0000
  H   H96       1.0  0.39092  0.21710  0.57993  1.0000
  H   H97       1.0  0.95796  0.71032  0.16829  1.0000
  H   H98       1.0  0.45796  0.21032  0.66829  1.0000
  H   H99       1.0  0.16693  0.01037  0.56611  1.0000
  H   H100      1.0  0.66693  0.51037  0.06611  1.0000
  C   C115      1.0  0.88782  0.76056  0.00001  1.0000
  C   C116      1.0  0.38782  0.26056  0.50001  1.0000
  H   H101      1.0  0.89858  0.71105  0.00001  1.0000
  H   H102      1.0  0.39858  0.21105  0.50001  1.0000
  H   H103      1.0  0.85455  0.77582  0.94233  1.0000
  H   H104      1.0  0.35455  0.27582  0.44233  1.0000
  H   H105      1.0  0.85454  0.77580  0.05769  1.0000
  H   H106      1.0  0.35454  0.27580  0.55769  1.0000
  C   C117      1.0  0.89069  0.91270  0.00001  1.0000
  C   C118      1.0  0.39069  0.41270  0.50001  1.0000
  H   H107      1.0  0.84153  0.88565  0.00001  1.0000
  H   H108      1.0  0.34153  0.38565  0.50001  1.0000
  H   H109      1.0  0.88784  0.94132  0.94235  1.0000
  H   H110      1.0  0.38784  0.44132  0.44235  1.0000
  H   H111      1.0  0.88783  0.94129  0.05770  1.0000
  H   H112      1.0  0.38783  0.44129  0.55770  1.0000
  H   H113      1.0  0.16691  0.01037  0.43389  1.0000
  H   H114      1.0  0.66691  0.51037  0.93389  1.0000
  H   H115      1.0  0.94553  0.18147  0.56611  1.0000
  H   H116      1.0  0.44553  0.68147  0.06611  1.0000
