data_image0
_chemical_formula_structural       O7Cu2OC18ONCOC10NC11O2C14N2C12HClH2ClH3ClH2ClH8ClHClH7Cl2
_chemical_formula_sum              "O12 Cu2 C66 N4 H24 Cl8"
_cell_length_a       10.6545
_cell_length_b       27.732
_cell_length_c       9.13031
_cell_angle_alpha    89.9918
_cell_angle_beta     89.9998
_cell_angle_gamma    83.5633

_space_group_name_H-M_alt    "P 1"
_space_group_IT_number       1

loop_
  _space_group_symop_operation_xyz
  'x, y, z'

loop_
  _atom_site_type_symbol
  _atom_site_label
  _atom_site_symmetry_multiplicity
  _atom_site_fract_x
  _atom_site_fract_y
  _atom_site_fract_z
  _atom_site_occupancy
  O   O1        1.0  0.66498  0.06788  0.87823  1.0000
  O   O2        1.0  0.29923  0.07435  0.87821  1.0000
  O   O3        1.0  0.49347  0.00079  0.87825  1.0000
  O   O4        1.0  0.47075  0.14144  0.87819  1.0000
  O   O5        1.0  0.49346  0.00079  0.12185  1.0000
  O   O6        1.0  0.29923  0.07435  0.12181  1.0000
  O   O7        1.0  0.66498  0.06788  0.12183  1.0000
  Cu  Cu1       1.0  0.48210  0.07111  0.14406  1.0000
  Cu  Cu2       1.0  0.48211  0.07111  0.85598  1.0000
  O   O8        1.0  0.47074  0.14144  0.12179  1.0000
  C   C1        1.0  0.25245  0.07387  0.00001  1.0000
  C   C2        1.0  0.11307  0.07245  0.00001  1.0000
  C   C3        1.0  0.08140  0.16042  0.99995  1.0000
  C   C4        1.0  0.00009  0.20373  0.99992  1.0000
  C   C5        1.0  0.86912  0.20239  0.99992  1.0000
  C   C6        1.0  0.81948  0.15774  0.99996  1.0000
  C   C7        1.0  0.90079  0.11442  0.99999  1.0000
  C   C8        1.0  0.03175  0.11577  0.99999  1.0000
  C   C9        1.0  0.93246  0.02646  0.00005  1.0000
  C   C10       1.0  0.06342  0.02780  0.00004  1.0000
  C   C11       1.0  0.88281  0.98181  0.00009  1.0000
  C   C12       1.0  0.96413  0.93850  0.00011  1.0000
  C   C13       1.0  0.09509  0.93984  0.00011  1.0000
  C   C14       1.0  0.14474  0.98449  0.00008  1.0000
  C   C15       1.0  0.49299  0.98278  0.00005  1.0000
  C   C16       1.0  0.49155  0.92911  0.00006  1.0000
  C   C17       1.0  0.59729  0.59096  0.99999  1.0000
  C   C18       1.0  0.59196  0.38926  0.99997  1.0000
  O   O9        1.0  0.68866  0.35861  0.99991  1.0000
  N   N1        1.0  0.47679  0.36942  0.99997  1.0000
  C   C19       1.0  0.36294  0.40001  0.99996  1.0000
  O   O10       1.0  0.26486  0.37851  0.99994  1.0000
  C   C20       1.0  0.36827  0.60170  0.99997  1.0000
  C   C21       1.0  0.48345  0.62154  0.99999  1.0000
  C   C22       1.0  0.71246  0.61079  0.00001  1.0000
  C   C23       1.0  0.71379  0.66121  0.00002  1.0000
  C   C24       1.0  0.59995  0.69180  0.00002  1.0000
  C   C25       1.0  0.48478  0.67196  0.00000  1.0000
  C   C26       1.0  0.25442  0.63229  0.99995  1.0000
  C   C27       1.0  0.25577  0.68271  0.99995  1.0000
  C   C28       1.0  0.37095  0.70255  0.99997  1.0000
  C   C29       1.0  0.37227  0.75296  0.00001  1.0000
  N   N2        1.0  0.48745  0.77280  0.00002  1.0000
  C   C30       1.0  0.60129  0.74222  0.00002  1.0000
  C   C31       1.0  0.36015  0.29412  0.99996  1.0000
  C   C32       1.0  0.35882  0.24370  0.99996  1.0000
  C   C33       1.0  0.58784  0.23295  0.99997  1.0000
  C   C34       1.0  0.58917  0.28338  0.99998  1.0000
  C   C35       1.0  0.47533  0.31396  0.99996  1.0000
  C   C36       1.0  0.60407  0.84811  0.00005  1.0000
  C   C37       1.0  0.60539  0.89853  0.00007  1.0000
  C   C38       1.0  0.37637  0.90927  0.00005  1.0000
  C   C39       1.0  0.37505  0.85885  0.00004  1.0000
  C   C40       1.0  0.48891  0.82827  0.00003  1.0000
  O   O11       1.0  0.27563  0.78364  0.00006  1.0000
  O   O12       1.0  0.69936  0.76373  0.00001  1.0000
  C   C41       1.0  0.59596  0.54054  0.99998  1.0000
  C   C42       1.0  0.48079  0.52070  0.99996  1.0000
  C   C43       1.0  0.36695  0.55128  0.99996  1.0000
  C   C44       1.0  0.47946  0.47028  0.99996  1.0000
  C   C45       1.0  0.59330  0.43969  0.99997  1.0000
  C   C46       1.0  0.70847  0.45953  0.99997  1.0000
  C   C47       1.0  0.70980  0.50995  0.99998  1.0000
  C   C48       1.0  0.25178  0.53144  0.99996  1.0000
  C   C49       1.0  0.25046  0.48102  0.99995  1.0000
  C   C50       1.0  0.36430  0.45044  0.99995  1.0000
  C   C51       1.0  0.71176  0.06835  0.00003  1.0000
  C   C52       1.0  0.85114  0.06977  0.00002  1.0000
  C   C53       1.0  0.47122  0.15945  0.99998  1.0000
  C   C54       1.0  0.47266  0.21311  0.99996  1.0000
  N   N3        1.0  0.48211  0.07111  0.34669  1.0000
  N   N4        1.0  0.48212  0.07111  0.65336  1.0000
  C   C55       1.0  0.65417  0.00599  0.34671  1.0000
  C   C56       1.0  0.74021  0.97344  0.42338  1.0000
  C   C57       1.0  0.74022  0.97344  0.57672  1.0000
  C   C58       1.0  0.65418  0.00600  0.65338  1.0000
  C   C59       1.0  0.56814  0.03855  0.57670  1.0000
  C   C60       1.0  0.56814  0.03855  0.42336  1.0000
  C   C61       1.0  0.39608  0.10367  0.57668  1.0000
  C   C62       1.0  0.39607  0.10367  0.42334  1.0000
  C   C63       1.0  0.31004  0.13623  0.65334  1.0000
  C   C64       1.0  0.22400  0.16879  0.57666  1.0000
  C   C65       1.0  0.22399  0.16879  0.42332  1.0000
  C   C66       1.0  0.31003  0.13623  0.34667  1.0000
  H   H1        1.0  0.04052  0.24008  0.99989  1.0000
  Cl  Cl1       1.0  0.31004  0.13623  0.84610  1.0000
  H   H2        1.0  0.15395  0.19530  0.63909  1.0000
  H   H3        1.0  0.65419  0.00599  0.77823  1.0000
  Cl  Cl2       1.0  0.75020  0.92347  0.00009  1.0000
  H   H4        1.0  0.31003  0.13623  0.22182  1.0000
  H   H5        1.0  0.92369  0.90214  0.00014  1.0000
  H   H6        1.0  0.80116  0.43463  0.99998  1.0000
  Cl  Cl3       1.0  0.11581  0.20972  0.32694  1.0000
  H   H7        1.0  0.26503  0.22755  0.99997  1.0000
  H   H8        1.0  0.80292  0.23766  0.99990  1.0000
  Cl  Cl4       1.0  0.24604  0.16210  0.99993  1.0000
  H   H9        1.0  0.71284  0.15665  0.99997  1.0000
  H   H10       1.0  0.16130  0.90457  0.00014  1.0000
  H   H11       1.0  0.15665  0.46487  0.99994  1.0000
  H   H12       1.0  0.81028  0.94692  0.63915  1.0000
  H   H13       1.0  0.25137  0.98558  0.00006  1.0000
  H   H14       1.0  0.77617  0.98072  0.00010  1.0000
  H   H15       1.0  0.69679  0.82321  0.00004  1.0000
  H   H16       1.0  0.80359  0.52610  1.00000  1.0000
  Cl  Cl5       1.0  0.85860  0.68615  0.00000  1.0000
  H   H17       1.0  0.80517  0.58590  0.00001  1.0000
  Cl  Cl6       1.0  0.73398  0.30831  1.00000  1.0000
  H   H18       1.0  0.26744  0.31901  0.99995  1.0000
  H   H19       1.0  0.68054  0.20804  0.99997  1.0000
  H   H20       1.0  0.16063  0.61614  0.99993  1.0000
  H   H21       1.0  0.16305  0.70761  0.99994  1.0000
  H   H22       1.0  0.28126  0.84270  0.00007  1.0000
  H   H23       1.0  0.28368  0.93418  0.00005  1.0000
  H   H24       1.0  0.15907  0.55634  0.99995  1.0000
  Cl  Cl7       1.0  0.84837  0.93250  0.32701  1.0000
  Cl  Cl8       1.0  0.65418  0.00600  0.15394  1.0000
