data_image0
_chemical_formula_structural       O7Cu2OC12N2C2HC2H5C2H5C2H5C2H5C2H7C2H7C2H5
_chemical_formula_sum              "O8 Cu2 C28 N2 H40"
_cell_length_a       10.9089
_cell_length_b       10.9678
_cell_length_c       9.4829
_cell_angle_alpha    87.4944
_cell_angle_beta     83.0384
_cell_angle_gamma    72.6847

_space_group_name_H-M_alt    "P 1"
_space_group_IT_number       1

loop_
  _space_group_symop_operation_xyz
  'x, y, z'

loop_
  _atom_site_type_symbol
  _atom_site_label
  _atom_site_symmetry_multiplicity
  _atom_site_fract_x
  _atom_site_fract_y
  _atom_site_fract_z
  _atom_site_occupancy
  O   O1        1.0  0.71351  0.79407  0.93072  1.0000
  O   O2        1.0  0.34431  0.88679  0.90748  1.0000
  O   O3        1.0  0.53033  0.66556  0.96292  1.0000
  O   O4        1.0  0.52748  0.01530  0.87529  1.0000
  O   O5        1.0  0.49255  0.71065  0.19341  1.0000
  O   O6        1.0  0.30653  0.93188  0.13798  1.0000
  O   O7        1.0  0.67573  0.83915  0.16122  1.0000
  Cu  Cu1       1.0  0.48768  0.88963  0.17064  1.0000
  Cu  Cu2       1.0  0.53236  0.83631  0.89806  1.0000
  O   O8        1.0  0.48971  0.06038  0.10578  1.0000
  C   C1        1.0  0.27801  0.91800  0.02056  1.0000
  C   C2        1.0  0.13676  0.94380  0.01409  1.0000
  C   C3        1.0  0.08301  0.84964  0.03769  1.0000
  C   C4        1.0  0.93702  0.87631  0.03100  1.0000
  C   C5        1.0  0.50838  0.64404  0.08920  1.0000
  C   C6        1.0  0.49924  0.51272  0.12210  1.0000
  C   C7        1.0  0.51474  0.43083  0.01735  1.0000
  C   C8        1.0  0.50530  0.29511  0.05135  1.0000
  C   C9        1.0  0.74202  0.80795  0.04814  1.0000
  C   C10       1.0  0.88328  0.78214  0.05460  1.0000
  C   C11       1.0  0.51166  0.08191  0.97949  1.0000
  C   C12       1.0  0.52079  0.21322  0.94659  1.0000
  N   N1        1.0  0.45626  0.92713  0.36237  1.0000
  N   N2        1.0  0.56378  0.79880  0.70633  1.0000
  C   C13       1.0  0.52308  0.84737  0.45455  1.0000
  C   C14       1.0  0.49695  0.87857  0.61415  1.0000
  H   H1        1.0  0.14508  0.74928  0.06282  1.0000
  C   C15       1.0  0.78753  0.67581  0.68958  1.0000
  C   C16       1.0  0.66701  0.67541  0.65323  1.0000
  H   H2        1.0  0.85122  0.59963  0.65674  1.0000
  H   H3        1.0  0.80945  0.74758  0.64676  1.0000
  H   H4        1.0  0.78365  0.68047  0.78988  1.0000
  H   H5        1.0  0.67089  0.67076  0.55292  1.0000
  H   H6        1.0  0.64509  0.60362  0.69604  1.0000
  C   C17       1.0  0.57608  0.26363  0.28388  1.0000
  C   C18       1.0  0.47794  0.25414  0.20639  1.0000
  H   H7        1.0  0.55918  0.23834  0.37959  1.0000
  H   H8        1.0  0.65677  0.20953  0.24325  1.0000
  H   H9        1.0  0.57883  0.34947  0.28137  1.0000
  H   H10       1.0  0.47520  0.16830  0.20889  1.0000
  H   H11       1.0  0.39723  0.30824  0.24703  1.0000
  C   C19       1.0  0.27320  0.00135  0.63059  1.0000
  C   C20       1.0  0.39361  0.00195  0.66709  1.0000
  H   H12       1.0  0.20940  0.07752  0.66328  1.0000
  H   H13       1.0  0.27721  0.99658  0.53029  1.0000
  H   H14       1.0  0.25133  0.92957  0.67346  1.0000
  H   H15       1.0  0.41548  0.07373  0.62422  1.0000
  H   H16       1.0  0.38960  0.00674  0.76741  1.0000
  C   C21       1.0  0.38520  0.15629  0.35211  1.0000
  C   C22       1.0  0.35292  0.05050  0.41531  1.0000
  H   H17       1.0  0.32140  0.23246  0.38479  1.0000
  H   H18       1.0  0.46688  0.15668  0.37688  1.0000
  H   H19       1.0  0.38921  0.15149  0.25181  1.0000
  H   H20       1.0  0.34893  0.05530  0.51562  1.0000
  H   H21       1.0  0.27122  0.05012  0.39055  1.0000
  C   C23       1.0  0.59417  0.61819  0.46472  1.0000
  C   C24       1.0  0.62643  0.72401  0.40156  1.0000
  H   H22       1.0  0.65798  0.54204  0.43199  1.0000
  H   H23       1.0  0.59020  0.62295  0.56501  1.0000
  H   H24       1.0  0.51248  0.61781  0.43996  1.0000
  H   H25       1.0  0.70812  0.72440  0.42632  1.0000
  H   H26       1.0  0.63041  0.71925  0.30125  1.0000
  H   H27       1.0  0.07469  0.04416  0.98894  1.0000
  H   H28       1.0  0.94534  0.68177  0.07973  1.0000
  C   C25       1.0  0.89877  0.05015  0.86314  1.0000
  C   C26       1.0  0.85324  0.01180  0.99705  1.0000
  H   H29       1.0  0.84704  0.13379  0.84218  1.0000
  H   H30       1.0  0.98587  0.05000  0.86319  1.0000
  H   H31       1.0  0.89424  0.99266  0.79324  1.0000
  H   H32       1.0  0.85778  0.06928  0.06695  1.0000
  H   H33       1.0  0.76612  0.01196  0.99701  1.0000
  H   H34       1.0  0.54104  0.24358  0.83174  1.0000
  H   H35       1.0  0.47898  0.48236  0.23693  1.0000
  C   C27       1.0  0.54620  0.59831  0.85866  1.0000
  C   C28       1.0  0.54212  0.47180  0.86233  1.0000
  H   H36       1.0  0.56312  0.62359  0.76295  1.0000
  H   H37       1.0  0.46550  0.65240  0.89926  1.0000
  H   H38       1.0  0.61276  0.60473  0.91127  1.0000
  H   H39       1.0  0.47555  0.46538  0.80972  1.0000
  H   H40       1.0  0.62284  0.41769  0.82171  1.0000
