data_image0
_chemical_formula_structural       O14Zn4O2C36N2C20N6C20N4H2Cl4H8Cl4H8Cl4H24Cl2
_chemical_formula_sum              "O16 Zn4 C76 N12 H42 Cl14"
_cell_length_a       15.9954
_cell_length_b       16.9927
_cell_length_c       16.0538
_cell_angle_alpha    87.2589
_cell_angle_beta     92.5776
_cell_angle_gamma    87.0803

_space_group_name_H-M_alt    "P 1"
_space_group_IT_number       1

loop_
  _space_group_symop_operation_xyz
  'x, y, z'

loop_
  _atom_site_type_symbol
  _atom_site_label
  _atom_site_symmetry_multiplicity
  _atom_site_fract_x
  _atom_site_fract_y
  _atom_site_fract_z
  _atom_site_occupancy
  O   O1        1.0  0.87894  0.90223  0.93064  1.0000
  O   O2        1.0  0.37894  0.40223  0.43064  1.0000
  O   O3        1.0  0.12188  0.88975  0.93062  1.0000
  O   O4        1.0  0.62188  0.38975  0.43062  1.0000
  O   O5        1.0  0.00139  0.01013  0.93064  1.0000
  O   O6        1.0  0.50139  0.51013  0.43064  1.0000
  O   O7        1.0  0.99944  0.78185  0.93063  1.0000
  O   O8        1.0  0.49944  0.28185  0.43063  1.0000
  O   O9        1.0  0.00802  0.00353  0.06950  1.0000
  O   O10       1.0  0.50802  0.50353  0.56950  1.0000
  O   O11       1.0  0.12852  0.88315  0.06948  1.0000
  O   O12       1.0  0.62852  0.38315  0.56948  1.0000
  O   O13       1.0  0.88558  0.89563  0.06950  1.0000
  O   O14       1.0  0.38558  0.39563  0.56950  1.0000
  Zn  Zn1       1.0  0.00810  0.88834  0.09154  1.0000
  Zn  Zn2       1.0  0.50810  0.38834  0.59154  1.0000
  Zn  Zn3       1.0  0.99936  0.89704  0.90859  1.0000
  Zn  Zn4       1.0  0.49936  0.39704  0.40859  1.0000
  O   O15       1.0  0.00607  0.77525  0.06948  1.0000
  O   O16       1.0  0.50607  0.27525  0.56948  1.0000
  C   C1        1.0  0.15643  0.88697  0.00005  1.0000
  C   C2        1.0  0.65643  0.38697  0.50005  1.0000
  C   C3        1.0  0.24948  0.88851  0.00004  1.0000
  C   C4        1.0  0.74948  0.38851  0.50004  1.0000
  C   C5        1.0  0.00721  0.03605  0.00007  1.0000
  C   C6        1.0  0.50721  0.53604  0.50007  1.0000
  C   C7        1.0  0.01469  0.12309  0.00007  1.0000
  C   C8        1.0  0.51469  0.62309  0.50007  1.0000
  C   C9        1.0  0.85103  0.89841  0.00007  1.0000
  C   C10       1.0  0.35103  0.39841  0.50007  1.0000
  C   C11       1.0  0.75798  0.89687  0.00007  1.0000
  C   C12       1.0  0.25798  0.39687  0.50007  1.0000
  C   C13       1.0  0.58760  0.89407  0.00006  1.0000
  C   C14       1.0  0.08760  0.39407  0.50006  1.0000
  C   C15       1.0  0.54592  0.97979  0.00038  1.0000
  C   C16       1.0  0.04592  0.47979  0.50038  1.0000
  C   C17       1.0  0.44911  0.97826  0.00006  1.0000
  C   C18       1.0  0.94911  0.47826  0.50006  1.0000
  C   C19       1.0  0.41986  0.89131  0.00005  1.0000
  C   C20       1.0  0.91986  0.39131  0.50005  1.0000
  C   C21       1.0  0.45433  0.85279  0.92076  1.0000
  C   C22       1.0  0.95433  0.35279  0.42076  1.0000
  C   C23       1.0  0.55110  0.85495  0.92070  1.0000
  C   C24       1.0  0.05110  0.35495  0.42070  1.0000
  C   C25       1.0  0.55887  0.84568  0.07861  1.0000
  C   C26       1.0  0.05887  0.34568  0.57861  1.0000
  C   C27       1.0  0.46197  0.84564  0.07965  1.0000
  C   C28       1.0  0.96197  0.34564  0.57965  1.0000
  C   C29       1.0  0.32505  0.88975  0.00005  1.0000
  C   C30       1.0  0.82505  0.38975  0.50005  1.0000
  C   C31       1.0  0.68240  0.89563  0.00006  1.0000
  C   C32       1.0  0.18240  0.39563  0.50006  1.0000
  C   C33       1.0  0.00025  0.74934  0.00005  1.0000
  C   C34       1.0  0.50025  0.24934  0.50005  1.0000
  C   C35       1.0  0.99277  0.66229  0.00005  1.0000
  C   C36       1.0  0.49277  0.16229  0.50005  1.0000
  N   N1        1.0  0.01406  0.88241  0.21640  1.0000
  N   N2        1.0  0.51406  0.38241  0.71640  1.0000
  C   C37       1.0  0.94255  0.17333  0.00007  1.0000
  C   C38       1.0  0.44255  0.67333  0.50007  1.0000
  C   C39       1.0  0.94958  0.25512  0.00006  1.0000
  C   C40       1.0  0.44958  0.75512  0.50006  1.0000
  C   C41       1.0  0.02875  0.28666  0.00006  1.0000
  C   C42       1.0  0.52875  0.78666  0.50006  1.0000
  C   C43       1.0  0.10089  0.23641  0.00005  1.0000
  C   C44       1.0  0.60089  0.73642  0.50005  1.0000
  C   C45       1.0  0.09386  0.15463  0.00005  1.0000
  C   C46       1.0  0.59386  0.65463  0.50005  1.0000
  C   C47       1.0  0.05788  0.53026  0.00004  1.0000
  C   C48       1.0  0.55788  0.03026  0.50004  1.0000
  C   C49       1.0  0.06491  0.61205  0.00004  1.0000
  C   C50       1.0  0.56491  0.11205  0.50004  1.0000
  C   C51       1.0  0.91360  0.63075  0.00006  1.0000
  C   C52       1.0  0.41360  0.13075  0.50006  1.0000
  C   C53       1.0  0.90658  0.54896  0.00007  1.0000
  C   C54       1.0  0.40658  0.04896  0.50007  1.0000
  C   C55       1.0  0.97872  0.49872  0.00005  1.0000
  C   C56       1.0  0.47872  0.99872  0.50005  1.0000
  N   N3        1.0  0.03593  0.37026  0.00005  1.0000
  N   N4        1.0  0.53593  0.87026  0.50005  1.0000
  N   N5        1.0  0.97153  0.41512  0.00005  1.0000
  N   N6        1.0  0.47153  0.91512  0.50005  1.0000
  N   N7        1.0  0.99339  0.90298  0.78373  1.0000
  N   N8        1.0  0.49339  0.40298  0.28373  1.0000
  C   C57       1.0  0.96277  0.93361  0.26010  1.0000
  C   C58       1.0  0.46277  0.43361  0.76010  1.0000
  C   C59       1.0  0.96693  0.92946  0.34750  1.0000
  C   C60       1.0  0.46693  0.42946  0.84750  1.0000
  C   C61       1.0  0.02238  0.87409  0.39121  1.0000
  C   C62       1.0  0.52238  0.37409  0.89121  1.0000
  C   C63       1.0  0.07368  0.82288  0.34750  1.0000
  C   C64       1.0  0.57367  0.32288  0.84750  1.0000
  C   C65       1.0  0.06952  0.82705  0.26010  1.0000
  C   C66       1.0  0.56952  0.32705  0.76010  1.0000
  C   C67       1.0  0.04054  0.85593  0.65261  1.0000
  C   C68       1.0  0.54053  0.35593  0.15261  1.0000
  C   C69       1.0  0.04469  0.85177  0.74003  1.0000
  C   C70       1.0  0.54469  0.35177  0.24003  1.0000
  C   C71       1.0  0.93794  0.95835  0.74002  1.0000
  C   C72       1.0  0.43794  0.45835  0.24002  1.0000
  C   C73       1.0  0.93378  0.96250  0.65262  1.0000
  C   C74       1.0  0.43378  0.46250  0.15262  1.0000
  C   C75       1.0  0.98509  0.91130  0.60892  1.0000
  C   C76       1.0  0.48509  0.41130  0.10892  1.0000
  N   N9        1.0  0.02663  0.86984  0.48055  1.0000
  N   N10       1.0  0.52663  0.36984  0.98055  1.0000
  N   N11       1.0  0.98084  0.91555  0.51958  1.0000
  N   N12       1.0  0.48084  0.41555  0.01957  1.0000
  H   H1        1.0  0.42562  0.00879  0.05690  1.0000
  H   H2        1.0  0.92562  0.50879  0.55690  1.0000
  Cl  Cl1       1.0  0.14339  0.75328  0.40244  1.0000
  Cl  Cl2       1.0  0.64339  0.25328  0.90244  1.0000
  Cl  Cl3       1.0  0.11440  0.78216  0.79496  1.0000
  Cl  Cl4       1.0  0.61440  0.28216  0.29496  1.0000
  H   H3        1.0  0.11129  0.78535  0.22452  1.0000
  H   H4        1.0  0.61129  0.28535  0.72452  1.0000
  H   H5        1.0  0.88863  0.00759  0.61703  1.0000
  H   H6        1.0  0.38863  0.50758  0.11703  1.0000
  H   H7        1.0  0.56864  0.88860  0.86143  1.0000
  H   H8        1.0  0.06864  0.38860  0.36143  1.0000
  H   H9        1.0  0.89617  0.00004  0.77561  1.0000
  H   H10       1.0  0.39618  0.50004  0.27561  1.0000
  Cl  Cl5       1.0  0.84302  0.13368  0.00009  1.0000
  Cl  Cl6       1.0  0.34302  0.63368  0.50009  1.0000
  Cl  Cl7       1.0  0.14858  0.46711  0.00002  1.0000
  Cl  Cl8       1.0  0.64858  0.96711  0.50002  1.0000
  H   H11       1.0  0.92516  0.97115  0.38308  1.0000
  H   H12       1.0  0.42516  0.47115  0.88308  1.0000
  H   H13       1.0  0.42510  0.88497  0.86175  1.0000
  H   H14       1.0  0.92510  0.38497  0.36175  1.0000
  H   H15       1.0  0.56945  0.01136  0.05724  1.0000
  H   H16       1.0  0.06945  0.51135  0.55724  1.0000
  H   H17       1.0  0.08231  0.81424  0.61704  1.0000
  H   H18       1.0  0.58231  0.31424  0.11704  1.0000
  Cl  Cl9       1.0  0.18454  0.09147  0.00004  1.0000
  Cl  Cl10      1.0  0.68454  0.59147  0.50004  1.0000
  Cl  Cl11      1.0  0.85889  0.31827  0.00007  1.0000
  Cl  Cl12      1.0  0.35889  0.81827  0.50008  1.0000
  H   H19       1.0  0.58643  0.78244  0.07914  1.0000
  H   H20       1.0  0.08643  0.28244  0.57914  1.0000
  H   H21       1.0  0.42077  0.01443  0.94312  1.0000
  H   H22       1.0  0.92077  0.51443  0.44312  1.0000
  H   H23       1.0  0.84211  0.52328  0.00007  1.0000
  H   H24       1.0  0.34211  0.02328  0.50007  1.0000
  H   H25       1.0  0.56510  0.01659  0.94383  1.0000
  H   H26       1.0  0.06510  0.51659  0.44383  1.0000
  H   H27       1.0  0.57897  0.79218  0.91710  1.0000
  H   H28       1.0  0.07897  0.29218  0.41710  1.0000
  H   H29       1.0  0.43579  0.78906  0.91781  1.0000
  H   H30       1.0  0.93579  0.28906  0.41781  1.0000
  H   H31       1.0  0.85487  0.67166  0.00007  1.0000
  H   H32       1.0  0.35487  0.17166  0.50007  1.0000
  H   H33       1.0  0.58415  0.87085  0.13871  1.0000
  H   H34       1.0  0.08415  0.37085  0.63871  1.0000
  H   H35       1.0  0.43953  0.87373  0.13831  1.0000
  H   H36       1.0  0.93953  0.37373  0.63831  1.0000
  H   H37       1.0  0.16534  0.26210  0.00004  1.0000
  H   H38       1.0  0.66534  0.76211  0.50004  1.0000
  H   H39       1.0  0.44259  0.78202  0.08444  1.0000
  H   H40       1.0  0.94259  0.28202  0.58444  1.0000
  H   H41       1.0  0.91761  0.97870  0.22452  1.0000
  H   H42       1.0  0.41761  0.47870  0.72452  1.0000
  Cl  Cl13      1.0  0.16444  0.65170  0.00004  1.0000
  Cl  Cl14      1.0  0.66444  0.15170  0.50004  1.0000
