data_image0
_chemical_formula_structural       Zn6O18N6H12C18H6C12H6C6H6C6N6H12C6H12C6H12C6H12C6H12C3H6Zn6O18N6H12C18H6C12H6C6H6C6N6H12C6H12C6H12C6H12C6H12C3H6
_chemical_formula_sum              "Zn12 O36 N24 H192 C138"
_cell_length_a       21.6453
_cell_length_b       21.6453
_cell_length_c       13.6198
_cell_angle_alpha    90
_cell_angle_beta     90
_cell_angle_gamma    120

_space_group_name_H-M_alt    "P 1"
_space_group_IT_number       1

loop_
  _space_group_symop_operation_xyz
  'x, y, z'

loop_
  _atom_site_type_symbol
  _atom_site_label
  _atom_site_symmetry_multiplicity
  _atom_site_fract_x
  _atom_site_fract_y
  _atom_site_fract_z
  _atom_site_occupancy
  Zn  Zn1       1.0  0.32695  0.60598  0.25866  1.0000
  Zn  Zn2       1.0  0.39402  0.72097  0.42533  1.0000
  Zn  Zn3       1.0  0.27903  0.67305  0.09199  1.0000
  Zn  Zn4       1.0  0.60598  0.32695  0.24134  1.0000
  Zn  Zn5       1.0  0.72097  0.39402  0.07467  1.0000
  Zn  Zn6       1.0  0.67305  0.27903  0.40801  1.0000
  O   O1        1.0  0.41331  0.65119  0.35020  1.0000
  O   O2        1.0  0.34881  0.76212  0.01687  1.0000
  O   O3        1.0  0.23788  0.58669  0.18353  1.0000
  O   O4        1.0  0.65119  0.41331  0.14980  1.0000
  O   O5        1.0  0.76212  0.34881  0.48313  1.0000
  O   O6        1.0  0.58669  0.23788  0.31647  1.0000
  O   O7        1.0  0.35082  0.63755  0.02990  1.0000
  O   O8        1.0  0.36245  0.71327  0.19657  1.0000
  O   O9        1.0  0.28673  0.64918  0.36323  1.0000
  O   O10       1.0  0.63755  0.35082  0.47010  1.0000
  O   O11       1.0  0.71327  0.36245  0.30343  1.0000
  O   O12       1.0  0.64918  0.28673  0.13677  1.0000
  O   O13       1.0  0.37524  0.58273  0.14780  1.0000
  O   O14       1.0  0.41727  0.79251  0.31447  1.0000
  O   O15       1.0  0.20749  0.62476  0.48113  1.0000
  O   O16       1.0  0.58273  0.37524  0.35220  1.0000
  O   O17       1.0  0.79251  0.41727  0.18553  1.0000
  O   O18       1.0  0.62476  0.20749  0.01887  1.0000
  N   N1        1.0  0.28380  0.50070  0.31440  1.0000
  N   N2        1.0  0.49930  0.78310  0.48107  1.0000
  N   N3        1.0  0.21690  0.71620  0.14773  1.0000
  N   N4        1.0  0.50070  0.28380  0.18560  1.0000
  N   N5        1.0  0.78310  0.49930  0.01893  1.0000
  N   N6        1.0  0.71620  0.21690  0.35227  1.0000
  H   H1        1.0  0.25600  0.47085  0.26588  1.0000
  H   H2        1.0  0.52915  0.78514  0.43254  1.0000
  H   H3        1.0  0.21486  0.74400  0.09921  1.0000
  H   H4        1.0  0.47085  0.25600  0.23412  1.0000
  H   H5        1.0  0.78514  0.52915  0.06746  1.0000
  H   H6        1.0  0.74400  0.21486  0.40079  1.0000
  H   H7        1.0  0.32118  0.49300  0.32187  1.0000
  H   H8        1.0  0.50700  0.82818  0.48853  1.0000
  H   H9        1.0  0.17182  0.67882  0.15520  1.0000
  H   H10       1.0  0.49300  0.32118  0.17813  1.0000
  H   H11       1.0  0.82818  0.50700  0.01147  1.0000
  H   H12       1.0  0.67882  0.17182  0.34480  1.0000
  C   C1        1.0  0.44080  0.61540  0.39400  1.0000
  C   C2        1.0  0.38460  0.82540  0.06067  1.0000
  C   C3        1.0  0.17460  0.55920  0.22733  1.0000
  C   C4        1.0  0.61540  0.44080  0.10600  1.0000
  C   C5        1.0  0.82540  0.38460  0.43933  1.0000
  C   C6        1.0  0.55920  0.17460  0.27267  1.0000
  C   C7        1.0  0.42960  0.59430  0.49425  1.0000
  C   C8        1.0  0.40570  0.83530  0.16092  1.0000
  C   C9        1.0  0.16470  0.57040  0.32758  1.0000
  C   C10       1.0  0.59430  0.42960  0.00575  1.0000
  C   C11       1.0  0.83530  0.40570  0.33908  1.0000
  C   C12       1.0  0.57040  0.16470  0.17242  1.0000
  C   C13       1.0  0.46360  0.55970  0.03285  1.0000
  C   C14       1.0  0.44030  0.90390  0.19952  1.0000
  C   C15       1.0  0.09610  0.53640  0.36618  1.0000
  C   C16       1.0  0.55970  0.46360  0.46715  1.0000
  C   C17       1.0  0.90390  0.44030  0.30048  1.0000
  C   C18       1.0  0.53640  0.09610  0.13382  1.0000
  H   H13       1.0  0.45612  0.54616  0.10006  1.0000
  H   H14       1.0  0.45384  0.90996  0.26672  1.0000
  H   H15       1.0  0.09004  0.54388  0.43339  1.0000
  H   H16       1.0  0.54616  0.45612  0.39994  1.0000
  H   H17       1.0  0.90996  0.45384  0.23328  1.0000
  H   H18       1.0  0.54388  0.09004  0.06661  1.0000
  C   C19       1.0  0.50810  0.54390  0.47810  1.0000
  C   C20       1.0  0.45610  0.96420  0.14477  1.0000
  C   C21       1.0  0.03580  0.49190  0.31143  1.0000
  C   C22       1.0  0.54390  0.50810  0.02190  1.0000
  C   C23       1.0  0.96420  0.45610  0.35523  1.0000
  C   C24       1.0  0.49190  0.03580  0.18857  1.0000
  C   C25       1.0  0.51720  0.56350  0.37925  1.0000
  C   C26       1.0  0.43650  0.95370  0.04592  1.0000
  C   C27       1.0  0.04630  0.48280  0.21258  1.0000
  C   C28       1.0  0.56350  0.51720  0.12075  1.0000
  C   C29       1.0  0.95370  0.43650  0.45408  1.0000
  C   C30       1.0  0.48280  0.04630  0.28742  1.0000
  H   H19       1.0  0.54643  0.55267  0.33913  1.0000
  H   H20       1.0  0.44733  0.99376  0.00580  1.0000
  H   H21       1.0  0.00624  0.45357  0.17246  1.0000
  H   H22       1.0  0.55267  0.54643  0.16087  1.0000
  H   H23       1.0  0.99376  0.44733  0.49420  1.0000
  H   H24       1.0  0.45357  0.00624  0.32754  1.0000
  C   C31       1.0  0.48430  0.59840  0.33845  1.0000
  C   C32       1.0  0.40160  0.88590  0.00512  1.0000
  C   C33       1.0  0.11410  0.51570  0.17178  1.0000
  C   C34       1.0  0.59840  0.48430  0.16155  1.0000
  C   C35       1.0  0.88590  0.40160  0.49488  1.0000
  C   C36       1.0  0.51570  0.11410  0.32822  1.0000
  H   H25       1.0  0.49165  0.61098  0.27092  1.0000
  H   H26       1.0  0.38902  0.88067  0.43759  1.0000
  H   H27       1.0  0.11933  0.50835  0.10426  1.0000
  H   H28       1.0  0.61098  0.49165  0.22908  1.0000
  H   H29       1.0  0.88067  0.38902  0.06241  1.0000
  H   H30       1.0  0.50835  0.11933  0.39574  1.0000
  C   C37       1.0  0.38200  0.60590  0.06170  1.0000
  C   C38       1.0  0.39410  0.77610  0.22837  1.0000
  C   C39       1.0  0.22390  0.61800  0.39503  1.0000
  C   C40       1.0  0.60590  0.38200  0.43830  1.0000
  C   C41       1.0  0.77610  0.39410  0.27163  1.0000
  C   C42       1.0  0.61800  0.22390  0.10497  1.0000
  N   N7        1.0  0.33990  0.41490  0.38950  1.0000
  N   N8        1.0  0.58510  0.92500  0.05617  1.0000
  N   N9        1.0  0.07500  0.66010  0.22283  1.0000
  N   N10       1.0  0.41490  0.33990  0.11050  1.0000
  N   N11       1.0  0.92500  0.58510  0.44383  1.0000
  N   N12       1.0  0.66010  0.07500  0.27717  1.0000
  H   H31       1.0  0.34332  0.45270  0.35552  1.0000
  H   H32       1.0  0.54730  0.89063  0.02218  1.0000
  H   H33       1.0  0.10937  0.65668  0.18885  1.0000
  H   H34       1.0  0.45270  0.34332  0.14448  1.0000
  H   H35       1.0  0.89063  0.54730  0.47782  1.0000
  H   H36       1.0  0.65668  0.10937  0.31115  1.0000
  H   H37       1.0  0.38398  0.42853  0.41409  1.0000
  H   H38       1.0  0.57147  0.95546  0.08075  1.0000
  H   H39       1.0  0.04454  0.61602  0.24742  1.0000
  H   H40       1.0  0.42853  0.38398  0.08591  1.0000
  H   H41       1.0  0.95546  0.57147  0.41925  1.0000
  H   H42       1.0  0.61602  0.04454  0.25258  1.0000
  C   C43       1.0  0.24210  0.47590  0.40455  1.0000
  C   C44       1.0  0.52410  0.76620  0.07122  1.0000
  C   C45       1.0  0.23380  0.75790  0.23788  1.0000
  C   C46       1.0  0.47590  0.24210  0.09545  1.0000
  C   C47       1.0  0.76620  0.52410  0.42878  1.0000
  C   C48       1.0  0.75790  0.23380  0.26212  1.0000
  H   H43       1.0  0.19741  0.47717  0.39473  1.0000
  H   H44       1.0  0.52283  0.72024  0.06140  1.0000
  H   H45       1.0  0.27976  0.80259  0.22807  1.0000
  H   H46       1.0  0.47717  0.19741  0.10527  1.0000
  H   H47       1.0  0.72024  0.52283  0.43860  1.0000
  H   H48       1.0  0.80259  0.27976  0.27193  1.0000
  H   H49       1.0  0.26921  0.51033  0.45737  1.0000
  H   H50       1.0  0.48967  0.75887  0.12404  1.0000
  H   H51       1.0  0.24113  0.73079  0.29070  1.0000
  H   H52       1.0  0.51033  0.26921  0.04263  1.0000
  H   H53       1.0  0.75887  0.48967  0.37596  1.0000
  H   H54       1.0  0.73079  0.24113  0.20930  1.0000
  C   C49       1.0  0.22240  0.40190  0.44010  1.0000
  C   C50       1.0  0.59810  0.82050  0.10677  1.0000
  C   C51       1.0  0.17950  0.77760  0.27343  1.0000
  C   C52       1.0  0.40190  0.22240  0.05990  1.0000
  C   C53       1.0  0.82050  0.59810  0.39323  1.0000
  C   C54       1.0  0.77760  0.17950  0.22657  1.0000
  H   H55       1.0  0.19949  0.36712  0.38613  1.0000
  H   H56       1.0  0.63288  0.83237  0.05279  1.0000
  H   H57       1.0  0.16763  0.80051  0.21946  1.0000
  H   H58       1.0  0.36712  0.19949  0.11387  1.0000
  H   H59       1.0  0.83237  0.63288  0.44721  1.0000
  H   H60       1.0  0.80051  0.16763  0.28054  1.0000
  H   H61       1.0  0.18788  0.38784  0.49484  1.0000
  H   H62       1.0  0.61216  0.80004  0.16150  1.0000
  H   H63       1.0  0.19996  0.81212  0.32817  1.0000
  H   H64       1.0  0.38784  0.18788  0.00516  1.0000
  H   H65       1.0  0.80004  0.61216  0.33850  1.0000
  H   H66       1.0  0.81212  0.19996  0.17183  1.0000
  C   C55       1.0  0.28990  0.40040  0.47550  1.0000
  C   C56       1.0  0.59960  0.88950  0.14217  1.0000
  C   C57       1.0  0.11050  0.71010  0.30883  1.0000
  C   C58       1.0  0.40040  0.28990  0.02450  1.0000
  C   C59       1.0  0.88950  0.59960  0.35783  1.0000
  C   C60       1.0  0.71010  0.11050  0.19117  1.0000
  H   H67       1.0  0.31453  0.43711  0.02679  1.0000
  H   H68       1.0  0.56289  0.87742  0.19346  1.0000
  H   H69       1.0  0.12259  0.68547  0.36013  1.0000
  H   H70       1.0  0.43711  0.31453  0.47321  1.0000
  H   H71       1.0  0.87741  0.56289  0.30654  1.0000
  H   H72       1.0  0.68547  0.12258  0.13987  1.0000
  H   H73       1.0  0.27588  0.35322  0.00422  1.0000
  H   H74       1.0  0.64678  0.92266  0.17089  1.0000
  H   H75       1.0  0.07734  0.72412  0.33756  1.0000
  H   H76       1.0  0.35322  0.27588  0.49578  1.0000
  H   H77       1.0  0.92266  0.64678  0.32911  1.0000
  H   H78       1.0  0.72412  0.07734  0.16244  1.0000
  C   C61       1.0  0.32250  0.35950  0.32250  1.0000
  C   C62       1.0  0.64050  0.96300  0.48917  1.0000
  C   C63       1.0  0.03700  0.67750  0.15583  1.0000
  C   C64       1.0  0.35950  0.32250  0.17750  1.0000
  C   C65       1.0  0.96300  0.64050  0.01083  1.0000
  C   C66       1.0  0.67750  0.03700  0.34417  1.0000
  H   H79       1.0  0.27759  0.34779  0.28853  1.0000
  H   H80       1.0  0.65221  0.92979  0.45519  1.0000
  H   H81       1.0  0.07020  0.72241  0.12186  1.0000
  H   H82       1.0  0.34779  0.27759  0.21147  1.0000
  H   H83       1.0  0.92979  0.65221  0.04481  1.0000
  H   H84       1.0  0.72241  0.07021  0.37814  1.0000
  H   H85       1.0  0.31480  0.31639  0.35852  1.0000
  H   H86       1.0  0.68361  0.99840  0.02518  1.0000
  H   H87       1.0  0.00160  0.68520  0.19185  1.0000
  H   H88       1.0  0.31639  0.31480  0.14148  1.0000
  H   H89       1.0  0.99840  0.68361  0.47482  1.0000
  H   H90       1.0  0.68520  0.00160  0.30815  1.0000
  C   C67       1.0  0.37950  0.37950  0.25000  1.0000
  C   C68       1.0  0.62050  0.00000  0.41667  1.0000
  C   C69       1.0  0.00000  0.62050  0.08333  1.0000
  H   H91       1.0  0.38882  0.42384  0.21627  1.0000
  H   H92       1.0  0.57616  0.96498  0.38293  1.0000
  H   H93       1.0  0.03502  0.61118  0.04960  1.0000
  H   H94       1.0  0.42384  0.38882  0.28373  1.0000
  H   H95       1.0  0.96498  0.57616  0.11707  1.0000
  H   H96       1.0  0.61118  0.03502  0.45040  1.0000
  Zn  Zn7       1.0  0.32695  0.60598  0.75866  1.0000
  Zn  Zn8       1.0  0.39402  0.72097  0.92533  1.0000
  Zn  Zn9       1.0  0.27903  0.67305  0.59199  1.0000
  Zn  Zn10      1.0  0.60598  0.32695  0.74134  1.0000
  Zn  Zn11      1.0  0.72097  0.39402  0.57467  1.0000
  Zn  Zn12      1.0  0.67305  0.27903  0.90801  1.0000
  O   O19       1.0  0.41331  0.65119  0.85020  1.0000
  O   O20       1.0  0.34881  0.76212  0.51687  1.0000
  O   O21       1.0  0.23788  0.58669  0.68353  1.0000
  O   O22       1.0  0.65119  0.41331  0.64980  1.0000
  O   O23       1.0  0.76212  0.34881  0.98313  1.0000
  O   O24       1.0  0.58669  0.23788  0.81647  1.0000
  O   O25       1.0  0.35082  0.63755  0.52990  1.0000
  O   O26       1.0  0.36245  0.71327  0.69657  1.0000
  O   O27       1.0  0.28673  0.64918  0.86323  1.0000
  O   O28       1.0  0.63755  0.35082  0.97010  1.0000
  O   O29       1.0  0.71327  0.36245  0.80343  1.0000
  O   O30       1.0  0.64918  0.28673  0.63677  1.0000
  O   O31       1.0  0.37524  0.58273  0.64780  1.0000
  O   O32       1.0  0.41727  0.79251  0.81447  1.0000
  O   O33       1.0  0.20749  0.62476  0.98113  1.0000
  O   O34       1.0  0.58273  0.37524  0.85220  1.0000
  O   O35       1.0  0.79251  0.41727  0.68553  1.0000
  O   O36       1.0  0.62476  0.20749  0.51887  1.0000
  N   N13       1.0  0.28380  0.50070  0.81440  1.0000
  N   N14       1.0  0.49930  0.78310  0.98107  1.0000
  N   N15       1.0  0.21690  0.71620  0.64773  1.0000
  N   N16       1.0  0.50070  0.28380  0.68560  1.0000
  N   N17       1.0  0.78310  0.49930  0.51893  1.0000
  N   N18       1.0  0.71620  0.21690  0.85227  1.0000
  H   H97       1.0  0.25600  0.47085  0.76588  1.0000
  H   H98       1.0  0.52915  0.78514  0.93254  1.0000
  H   H99       1.0  0.21486  0.74400  0.59921  1.0000
  H   H100      1.0  0.47085  0.25600  0.73412  1.0000
  H   H101      1.0  0.78514  0.52915  0.56746  1.0000
  H   H102      1.0  0.74400  0.21486  0.90079  1.0000
  H   H103      1.0  0.32118  0.49300  0.82187  1.0000
  H   H104      1.0  0.50700  0.82818  0.98853  1.0000
  H   H105      1.0  0.17182  0.67882  0.65520  1.0000
  H   H106      1.0  0.49300  0.32118  0.67813  1.0000
  H   H107      1.0  0.82818  0.50700  0.51147  1.0000
  H   H108      1.0  0.67882  0.17182  0.84480  1.0000
  C   C70       1.0  0.44080  0.61540  0.89400  1.0000
  C   C71       1.0  0.38460  0.82540  0.56067  1.0000
  C   C72       1.0  0.17460  0.55920  0.72733  1.0000
  C   C73       1.0  0.61540  0.44080  0.60600  1.0000
  C   C74       1.0  0.82540  0.38460  0.93933  1.0000
  C   C75       1.0  0.55920  0.17460  0.77267  1.0000
  C   C76       1.0  0.42960  0.59430  0.99425  1.0000
  C   C77       1.0  0.40570  0.83530  0.66092  1.0000
  C   C78       1.0  0.16470  0.57040  0.82758  1.0000
  C   C79       1.0  0.59430  0.42960  0.50575  1.0000
  C   C80       1.0  0.83530  0.40570  0.83908  1.0000
  C   C81       1.0  0.57040  0.16470  0.67242  1.0000
  C   C82       1.0  0.46360  0.55970  0.53285  1.0000
  C   C83       1.0  0.44030  0.90390  0.69952  1.0000
  C   C84       1.0  0.09610  0.53640  0.86618  1.0000
  C   C85       1.0  0.55970  0.46360  0.96715  1.0000
  C   C86       1.0  0.90390  0.44030  0.80048  1.0000
  C   C87       1.0  0.53640  0.09610  0.63382  1.0000
  H   H109      1.0  0.45612  0.54616  0.60006  1.0000
  H   H110      1.0  0.45384  0.90996  0.76672  1.0000
  H   H111      1.0  0.09004  0.54388  0.93339  1.0000
  H   H112      1.0  0.54616  0.45612  0.89994  1.0000
  H   H113      1.0  0.90996  0.45384  0.73328  1.0000
  H   H114      1.0  0.54388  0.09004  0.56661  1.0000
  C   C88       1.0  0.50810  0.54390  0.97810  1.0000
  C   C89       1.0  0.45610  0.96420  0.64477  1.0000
  C   C90       1.0  0.03580  0.49190  0.81143  1.0000
  C   C91       1.0  0.54390  0.50810  0.52190  1.0000
  C   C92       1.0  0.96420  0.45610  0.85523  1.0000
  C   C93       1.0  0.49190  0.03580  0.68857  1.0000
  C   C94       1.0  0.51720  0.56350  0.87925  1.0000
  C   C95       1.0  0.43650  0.95370  0.54592  1.0000
  C   C96       1.0  0.04630  0.48280  0.71258  1.0000
  C   C97       1.0  0.56350  0.51720  0.62075  1.0000
  C   C98       1.0  0.95370  0.43650  0.95408  1.0000
  C   C99       1.0  0.48280  0.04630  0.78742  1.0000
  H   H115      1.0  0.54643  0.55267  0.83913  1.0000
  H   H116      1.0  0.44733  0.99376  0.50580  1.0000
  H   H117      1.0  0.00624  0.45357  0.67246  1.0000
  H   H118      1.0  0.55267  0.54643  0.66087  1.0000
  H   H119      1.0  0.99376  0.44733  0.99420  1.0000
  H   H120      1.0  0.45357  0.00624  0.82754  1.0000
  C   C100      1.0  0.48430  0.59840  0.83845  1.0000
  C   C101      1.0  0.40160  0.88590  0.50512  1.0000
  C   C102      1.0  0.11410  0.51570  0.67178  1.0000
  C   C103      1.0  0.59840  0.48430  0.66155  1.0000
  C   C104      1.0  0.88590  0.40160  0.99488  1.0000
  C   C105      1.0  0.51570  0.11410  0.82822  1.0000
  H   H121      1.0  0.49165  0.61098  0.77092  1.0000
  H   H122      1.0  0.38902  0.88067  0.93759  1.0000
  H   H123      1.0  0.11933  0.50835  0.60426  1.0000
  H   H124      1.0  0.61098  0.49165  0.72908  1.0000
  H   H125      1.0  0.88067  0.38902  0.56241  1.0000
  H   H126      1.0  0.50835  0.11933  0.89574  1.0000
  C   C106      1.0  0.38200  0.60590  0.56170  1.0000
  C   C107      1.0  0.39410  0.77610  0.72837  1.0000
  C   C108      1.0  0.22390  0.61800  0.89503  1.0000
  C   C109      1.0  0.60590  0.38200  0.93830  1.0000
  C   C110      1.0  0.77610  0.39410  0.77163  1.0000
  C   C111      1.0  0.61800  0.22390  0.60497  1.0000
  N   N19       1.0  0.33990  0.41490  0.88950  1.0000
  N   N20       1.0  0.58510  0.92500  0.55617  1.0000
  N   N21       1.0  0.07500  0.66010  0.72283  1.0000
  N   N22       1.0  0.41490  0.33990  0.61050  1.0000
  N   N23       1.0  0.92500  0.58510  0.94383  1.0000
  N   N24       1.0  0.66010  0.07500  0.77717  1.0000
  H   H127      1.0  0.34332  0.45270  0.85552  1.0000
  H   H128      1.0  0.54730  0.89063  0.52218  1.0000
  H   H129      1.0  0.10937  0.65668  0.68885  1.0000
  H   H130      1.0  0.45270  0.34332  0.64448  1.0000
  H   H131      1.0  0.89063  0.54730  0.97782  1.0000
  H   H132      1.0  0.65668  0.10937  0.81115  1.0000
  H   H133      1.0  0.38398  0.42853  0.91409  1.0000
  H   H134      1.0  0.57147  0.95546  0.58075  1.0000
  H   H135      1.0  0.04454  0.61602  0.74742  1.0000
  H   H136      1.0  0.42853  0.38398  0.58591  1.0000
  H   H137      1.0  0.95546  0.57147  0.91925  1.0000
  H   H138      1.0  0.61602  0.04454  0.75258  1.0000
  C   C112      1.0  0.24210  0.47590  0.90455  1.0000
  C   C113      1.0  0.52410  0.76620  0.57122  1.0000
  C   C114      1.0  0.23380  0.75790  0.73788  1.0000
  C   C115      1.0  0.47590  0.24210  0.59545  1.0000
  C   C116      1.0  0.76620  0.52410  0.92878  1.0000
  C   C117      1.0  0.75790  0.23380  0.76212  1.0000
  H   H139      1.0  0.19741  0.47717  0.89473  1.0000
  H   H140      1.0  0.52283  0.72024  0.56140  1.0000
  H   H141      1.0  0.27976  0.80259  0.72807  1.0000
  H   H142      1.0  0.47717  0.19741  0.60527  1.0000
  H   H143      1.0  0.72024  0.52283  0.93860  1.0000
  H   H144      1.0  0.80259  0.27976  0.77193  1.0000
  H   H145      1.0  0.26921  0.51033  0.95737  1.0000
  H   H146      1.0  0.48967  0.75887  0.62404  1.0000
  H   H147      1.0  0.24113  0.73079  0.79070  1.0000
  H   H148      1.0  0.51033  0.26921  0.54263  1.0000
  H   H149      1.0  0.75887  0.48967  0.87596  1.0000
  H   H150      1.0  0.73079  0.24113  0.70930  1.0000
  C   C118      1.0  0.22240  0.40190  0.94010  1.0000
  C   C119      1.0  0.59810  0.82050  0.60677  1.0000
  C   C120      1.0  0.17950  0.77760  0.77343  1.0000
  C   C121      1.0  0.40190  0.22240  0.55990  1.0000
  C   C122      1.0  0.82050  0.59810  0.89323  1.0000
  C   C123      1.0  0.77760  0.17950  0.72657  1.0000
  H   H151      1.0  0.19949  0.36712  0.88613  1.0000
  H   H152      1.0  0.63288  0.83237  0.55279  1.0000
  H   H153      1.0  0.16763  0.80051  0.71946  1.0000
  H   H154      1.0  0.36712  0.19949  0.61387  1.0000
  H   H155      1.0  0.83237  0.63288  0.94721  1.0000
  H   H156      1.0  0.80051  0.16763  0.78054  1.0000
  H   H157      1.0  0.18788  0.38784  0.99484  1.0000
  H   H158      1.0  0.61216  0.80004  0.66150  1.0000
  H   H159      1.0  0.19996  0.81212  0.82817  1.0000
  H   H160      1.0  0.38784  0.18788  0.50516  1.0000
  H   H161      1.0  0.80004  0.61216  0.83850  1.0000
  H   H162      1.0  0.81212  0.19996  0.67183  1.0000
  C   C124      1.0  0.28990  0.40040  0.97550  1.0000
  C   C125      1.0  0.59960  0.88950  0.64217  1.0000
  C   C126      1.0  0.11050  0.71010  0.80883  1.0000
  C   C127      1.0  0.40040  0.28990  0.52450  1.0000
  C   C128      1.0  0.88950  0.59960  0.85783  1.0000
  C   C129      1.0  0.71010  0.11050  0.69117  1.0000
  H   H163      1.0  0.31453  0.43711  0.52679  1.0000
  H   H164      1.0  0.56289  0.87742  0.69346  1.0000
  H   H165      1.0  0.12259  0.68547  0.86013  1.0000
  H   H166      1.0  0.43711  0.31453  0.97321  1.0000
  H   H167      1.0  0.87741  0.56289  0.80654  1.0000
  H   H168      1.0  0.68547  0.12258  0.63987  1.0000
  H   H169      1.0  0.27588  0.35322  0.50422  1.0000
  H   H170      1.0  0.64678  0.92266  0.67089  1.0000
  H   H171      1.0  0.07734  0.72412  0.83756  1.0000
  H   H172      1.0  0.35322  0.27588  0.99578  1.0000
  H   H173      1.0  0.92266  0.64678  0.82911  1.0000
  H   H174      1.0  0.72412  0.07734  0.66244  1.0000
  C   C130      1.0  0.32250  0.35950  0.82250  1.0000
  C   C131      1.0  0.64050  0.96300  0.98917  1.0000
  C   C132      1.0  0.03700  0.67750  0.65583  1.0000
  C   C133      1.0  0.35950  0.32250  0.67750  1.0000
  C   C134      1.0  0.96300  0.64050  0.51083  1.0000
  C   C135      1.0  0.67750  0.03700  0.84417  1.0000
  H   H175      1.0  0.27759  0.34779  0.78853  1.0000
  H   H176      1.0  0.65221  0.92979  0.95519  1.0000
  H   H177      1.0  0.07020  0.72241  0.62186  1.0000
  H   H178      1.0  0.34779  0.27759  0.71147  1.0000
  H   H179      1.0  0.92979  0.65221  0.54481  1.0000
  H   H180      1.0  0.72241  0.07021  0.87814  1.0000
  H   H181      1.0  0.31480  0.31639  0.85852  1.0000
  H   H182      1.0  0.68361  0.99840  0.52518  1.0000
  H   H183      1.0  0.00160  0.68520  0.69185  1.0000
  H   H184      1.0  0.31639  0.31480  0.64148  1.0000
  H   H185      1.0  0.99840  0.68361  0.97482  1.0000
  H   H186      1.0  0.68520  0.00160  0.80815  1.0000
  C   C136      1.0  0.37950  0.37950  0.75000  1.0000
  C   C137      1.0  0.62050  0.00000  0.91667  1.0000
  C   C138      1.0  0.00000  0.62050  0.58333  1.0000
  H   H187      1.0  0.38882  0.42384  0.71627  1.0000
  H   H188      1.0  0.57616  0.96498  0.88293  1.0000
  H   H189      1.0  0.03502  0.61118  0.54960  1.0000
  H   H190      1.0  0.42384  0.38882  0.78373  1.0000
  H   H191      1.0  0.96498  0.57616  0.61707  1.0000
  H   H192      1.0  0.61118  0.03502  0.95040  1.0000
